    20110315       60000
 FLEXPWRF V5.0
        3600        3600        1200           0
   136.60100       33.091999             288         285  3.08020916E-02  2.87578925E-02
          18   15.000000       50.000000       100.00000       200.00000       300.00000       400.00000       500.00000       1000.0000       2000.0000       3000.0000       4000.0000       5000.0000       6000.0000       7000.0000       8000.0000       9000.0000       10000.000       15000.000    
    20110315       60000
           3           2           1
           1
 WD_I-131  
           1
 DD_I-131  
          18
 I-131     
           1
           0       39600           1
   141.03000       37.419998       141.03999       37.430000       10.000000       30.000000    
      100000           1
 FKS_RELEASE_SCENARIO1                        
   1.0000000    
   1.0000000    
   1.0000000    
           0           1           0
           1   999999999
  0.11494943      0.13932781      0.16458063      0.18978922      0.21424438      0.23927325      0.26952749      0.30206344      0.33363485      0.35310337      0.35384181      0.35362983      0.32496649      0.20631990      7.91459158E-02  0.13586472      0.46220604      0.93454999       1.0182686      0.77029198      0.24294560      1.55241787E-02  5.39023802E-02  0.24831325      0.23236285      7.75463060E-02  6.38261484E-03  0.21943128       1.5269406       3.8996036       7.7934356       13.269668       20.391657       28.271502       36.983788       46.496021       57.679672       70.482224       84.957275       100.14114       116.00172       132.14525       151.04654       172.16670       195.25468       215.60199       232.54204       245.63913       254.90146       260.27997       262.03033       262.60266       262.50089       262.19452       262.06113       262.28915       263.15527       263.71155       263.49136       262.66428       262.23044       262.85504       264.40918       265.75665       266.51926       266.54266       266.63480       267.02536       267.69632       268.51141       269.41376       270.47418       271.27167       271.69699       271.65799       271.99609       273.48181       276.55652       279.42130       281.22461       281.95471       283.60217       287.60028       294.05173       302.17249       311.24875       320.97931       332.51080       346.74078       363.30399       379.07938       390.46512       397.28906       400.35568       401.33664       399.78510       395.63043       388.64029       378.98395       366.79578       352.27322       335.47073       316.65897       296.31473       274.74551       251.44768       224.56927       194.80573       163.91206       136.67375       113.09070       93.131004       74.382355       57.390598       42.459663       31.492504       24.079847       19.601301       14.862108       9.9820509       4.9324241       1.9325080      0.62918782      0.25007144      4.56703305E-02  2.24961396E-02  7.53037678E-03  2.49442570E-02  2.17548385E-02  2.34698178E-03  1.20013962E-02  9.33247358E-02  0.22847463      0.29043803      0.28348681      0.21499431      0.18340608      0.18910819      0.23285010      0.26684472      0.29198292      0.30572766      0.32144776      0.33771086      0.35410026      0.36727870      0.37709293      0.38363197      0.38679492      0.38673460      0.38297901      0.37986666      0.37740865      0.37607470      0.36901093      0.35525995      0.33392626      0.30978519      0.28336865      0.25632814      0.22080596      0.17687371      0.12441105      7.81000331E-02  4.25052494E-02  1.94047634E-02  4.38204221E-03  6.78477318E-06  8.48568670E-05  2.72657955E-03  1.52409049E-02  3.77319343E-02  5.86202219E-02  7.34137446E-02  8.04281011E-02  8.41728374E-02  8.57574046E-02  8.57351571E-02  8.26500803E-02  7.20107704E-02  5.25204465E-02  3.26847658E-02  1.78163163E-02  8.22207704E-03  2.55672215E-03  1.19580676E-04  3.09821417E-06  3.14301610E-06  1.16675379E-04  1.29232547E-04  4.51839196E-06  4.92830804E-06  1.31367483E-06  3.31683614E-09  2.94470647E-05  1.28068248E-04  2.24234158E-04  2.31416372E-04  1.57112983E-04  4.48371829E-05  5.92823426E-07   0.0000000       0.0000000       0.0000000       0.0000000       0.0000000       0.0000000       0.0000000       0.0000000       0.0000000       0.0000000       0.0000000       0.0000000       0.0000000       0.0000000       0.0000000       0.0000000       0.0000000       0.0000000       0.0000000       0.0000000       0.0000000       0.0000000       0.0000000       0.0000000       0.0000000       0.0000000       0.0000000       0.0000000       0.0000000       0.0000000       0.0000000       0.0000000       0.0000000       0.0000000       0.0000000       0.0000000       0.0000000       0.0000000       0.0000000       0.0000000       0.0000000       0.0000000       0.0000000       0.0000000       0.0000000       0.0000000       0.0000000       0.0000000       0.0000000       0.0000000       0.0000000       0.0000000       0.0000000       0.0000000       0.0000000       0.0000000       0.0000000       0.0000000       0.0000000       0.0000000       0.0000000       0.0000000       0.0000000       0.0000000       0.0000000       0.0000000       0.0000000       0.0000000       0.0000000       0.0000000       0.0000000       0.0000000       0.0000000       0.0000000       0.0000000       0.0000000       0.0000000       0.0000000       0.0000000       0.0000000       0.0000000       0.0000000       0.0000000       0.0000000    
  8.70283693E-02  0.11060742      0.13735324      0.16433506      0.19102035      0.21959968      0.25753191      0.30179527      0.34670734      0.37388563      0.38017535      0.38024184      0.36217812      0.28534529      0.19955127      0.22912422      0.40907091      0.67150474      0.69498485      0.51480442      0.16525045      1.06191402E-02  3.04882731E-02  0.14124709      0.13587214      5.92676625E-02  4.20049503E-02  9.23925489E-02  0.60085946       1.6532598       4.2113013       8.3124876       14.051183       20.168819       26.806772       33.958813       42.939278       53.716110       66.391846       79.824402       94.009605       108.56606       126.00555       145.80879       167.78247       187.05884       203.02457       215.14732       224.50038       231.09085       235.01541       236.90178       237.10951       236.11128       235.46355       235.58922       236.94652       238.03122       238.69727       239.07324       239.99826       241.87173       244.84427       247.62918       249.92511       251.65155       253.42258       255.42349       257.56335       260.02820       262.81116       266.08023       268.72525       270.36893       270.81042       271.68311       273.77020       277.41577       280.60989       282.33676       282.64871       283.79242       287.42856       293.68347       301.97040       311.72015       322.65454       335.78452       351.84229       370.42361       388.34024       401.91776       411.02258       416.08490       418.13129       416.96625       413.65109       408.86481       402.87515       394.81119       382.81461       367.12585       348.41180       328.42102       307.24637       284.33035       257.46100       227.42230       195.94960       167.81294       143.00159       121.50530       101.00998       82.080528       64.994377       51.369652       40.893517       33.108616       25.540974       18.307501       11.395772       6.4075828       3.0208786       1.1256753      0.11643323      2.29906216E-02  1.18231280E-02  2.29199715E-02  1.90600269E-02  2.73133116E-03  1.55487927E-02  0.12026100      0.29167652      0.35308304      0.31445929      0.17045304      9.36914459E-02  8.92972350E-02  0.12197955      0.14382619      0.15011403      0.13351703      0.13449098      0.15062757      0.18277353      0.20508966      0.21374758      0.21760988      0.21866485      0.21844843      0.21813482      0.21725726      0.21587257      0.21433382      0.20980924      0.20187974      0.19009727      0.17670245      0.16192161      0.14669922      0.12653024      0.10145511      7.15355873E-02  4.48484309E-02  2.40943860E-02  1.03243347E-02  2.20959680E-03  8.77527054E-04  3.63765727E-03  1.14871133E-02  2.64826100E-02  4.85801287E-02  6.85578361E-02  8.23737010E-02  8.85669291E-02  9.13660824E-02  9.23497081E-02  9.19649675E-02  8.70256573E-02  7.47935772E-02  5.49696498E-02  3.48422490E-02  1.94596089E-02  9.11894441E-03  2.78321025E-03  1.19580676E-04  3.09821417E-06  3.14301610E-06  1.16675379E-04  1.29232547E-04  4.51839196E-06  4.92830804E-06  1.31367483E-06  3.31683614E-09  2.94470738E-05  1.28068248E-04  2.24234158E-04  2.31416518E-04  1.57112998E-04  4.48371829E-05  5.92823540E-07   0.0000000       0.0000000       0.0000000       0.0000000       0.0000000       0.0000000       0.0000000       0.0000000       0.0000000       0.0000000       0.0000000       0.0000000       0.0000000       0.0000000       0.0000000       0.0000000       0.0000000       0.0000000       0.0000000       0.0000000       0.0000000       0.0000000       0.0000000       0.0000000       0.0000000       0.0000000       0.0000000       0.0000000       0.0000000       0.0000000       0.0000000       0.0000000       0.0000000       0.0000000       0.0000000       0.0000000       0.0000000       0.0000000       0.0000000       0.0000000       0.0000000       0.0000000       0.0000000       0.0000000       0.0000000       0.0000000       0.0000000       0.0000000       0.0000000       0.0000000       0.0000000       0.0000000       0.0000000       0.0000000       0.0000000       0.0000000       0.0000000       0.0000000       0.0000000       0.0000000       0.0000000       0.0000000       0.0000000       0.0000000       0.0000000       0.0000000       0.0000000       0.0000000       0.0000000       0.0000000       0.0000000       0.0000000       0.0000000       0.0000000       0.0000000       0.0000000       0.0000000       0.0000000       0.0000000       0.0000000       0.0000000       0.0000000       0.0000000       0.0000000    
  6.26537651E-02  8.55070204E-02  0.11352147      0.14200924      0.17061552      0.20226508      0.24678348      0.30108649      0.35753226      0.39259407      0.40577760      0.40626177      0.39751664      0.35792166      0.31019172      0.31576958      0.37401852      0.45848921      0.44585645      0.31965953      0.11040150      7.24345259E-03  3.20874504E-03  1.56574864E-02  1.75013132E-02  1.33526819E-02  2.81100273E-02  1.08281840E-02  4.40856069E-02  0.19028421       1.2134082       4.0730095       8.6073446       13.205031       18.061161       23.190599       30.254065       39.236080       50.277557       62.104179       74.734459       87.801125       103.81973       122.29295       143.07964       161.22148       176.15820       187.28082       196.56273       203.97531       209.71492       212.74359       213.16402       211.63141       210.50800       210.39603       211.77396       213.17323       214.49297       215.69470       217.68843       220.58098       224.44060       228.25534       231.76318       234.90056       238.08322       241.44780       244.87314       248.76941       253.19420       258.26532       262.81787       266.38895       268.77274       271.16760       274.11041       277.94019       280.85352       281.80026       281.93384       282.51404       285.62512       292.57031       301.68030       311.91287       323.01532       336.45432       353.42828       373.46436       393.22678       408.81494       420.16397       427.39545       430.52820       430.06253       428.78970       426.72693       423.91342       419.37946       410.20926       396.71945       379.63211       361.05252       340.96335       318.83398       292.49994       262.74692       231.27180       202.71402       177.07376       154.35953       132.36943       111.68262       92.551308       76.311783       62.745739       51.563564       41.054382       31.327921       22.370668       15.087508       9.2859535       4.9379349       2.2793140       1.2184552       1.0991384      0.91716176      0.64502114      0.18707787      2.79510710E-02  0.10382307      0.37786308      0.47745758      0.41438648      0.16959605      3.36715393E-02  1.86539087E-02  2.94667408E-02  3.56697850E-02  3.36769521E-02  1.90778337E-02  1.52275860E-02  2.09041741E-02  3.67711671E-02  4.70861457E-02  4.92481887E-02  4.97892611E-02  4.94105704E-02  4.91614603E-02  5.00245616E-02  5.03198616E-02  5.00373244E-02  4.92562577E-02  4.79405336E-02  4.60567810E-02  4.35263067E-02  4.06202227E-02  3.73525210E-02  3.39414068E-02  2.93457005E-02  2.35745907E-02  1.66977923E-02  1.04441009E-02  5.47666522E-03  2.05297372E-03  4.47958388E-04  2.92208185E-03  9.25578829E-03  2.06159614E-02  3.67302820E-02  5.77675812E-02  7.62415975E-02  8.86744857E-02  9.38714072E-02  9.56526324E-02  9.57567319E-02  9.45795551E-02  8.82907733E-02  7.52425641E-02  5.56877777E-02  3.58831435E-02  2.04666033E-02  9.71724186E-03  2.92541832E-03  1.19508259E-04  3.09633742E-06  3.14111230E-06  1.16604722E-04  1.29154287E-04  4.51565575E-06  4.92532399E-06  1.31287925E-06  3.31482997E-09  2.94292404E-05  1.27990686E-04  2.24098374E-04  2.31276310E-04  1.57017828E-04  4.48100363E-05  5.92464460E-07   0.0000000       0.0000000       0.0000000       0.0000000       0.0000000       0.0000000       0.0000000       0.0000000       0.0000000       0.0000000       0.0000000       0.0000000       0.0000000       0.0000000       0.0000000       0.0000000       0.0000000       0.0000000       0.0000000       0.0000000       0.0000000       0.0000000       0.0000000       0.0000000       0.0000000       0.0000000       0.0000000       0.0000000       0.0000000       0.0000000       0.0000000       0.0000000       0.0000000       0.0000000       0.0000000       0.0000000       0.0000000       0.0000000       0.0000000       0.0000000       0.0000000       0.0000000       0.0000000       0.0000000       0.0000000       0.0000000       0.0000000       0.0000000       0.0000000       0.0000000       0.0000000       0.0000000       0.0000000       0.0000000       0.0000000       0.0000000       0.0000000       0.0000000       0.0000000       0.0000000       0.0000000       0.0000000       0.0000000       0.0000000       0.0000000       0.0000000       0.0000000       0.0000000       0.0000000       0.0000000       0.0000000       0.0000000       0.0000000       0.0000000       0.0000000       0.0000000       0.0000000       0.0000000       0.0000000       0.0000000       0.0000000       0.0000000       0.0000000       0.0000000    
  4.10168245E-02  6.22567683E-02  9.00531262E-02  0.11878390      0.14817922      0.18168116      0.23073962      0.29203615      0.35651705      0.39656764      0.41285515      0.41345918      0.40784338      0.38206360      0.34864268      0.34256092      0.35162365      0.36013171      0.34004855      0.23635709      8.35887194E-02  5.52208116E-03   0.0000000       0.0000000       0.0000000       0.0000000       0.0000000       0.0000000       0.0000000       0.0000000      0.27979392       2.1359577       5.3103442       8.3649349       11.518367       14.826168       20.113384       27.395088       36.845863       47.091335       58.167664       69.721771       84.257301       101.29816       120.73718       137.62914       151.45305       161.56639       170.42836       177.99176       184.51126       188.00819       188.47583       186.54889       185.15660       184.99396       186.54205       188.30406       190.17833       192.14398       194.97610       198.74394       203.49135       208.26126       212.79256       217.02069       221.28537       225.70326       230.14951       235.09828       240.63557       246.82982       252.66800       257.70334       261.74637       265.53787       269.37756       273.62030       276.56241       277.15781       277.17438       277.42993       280.42157       288.17889       298.23389       309.14041       320.69003       334.58414       352.28503       373.29095       394.32574       411.52673       424.81967       434.28339       440.16638       442.57025       443.56738       443.62808       442.58527       439.83035       433.38315       423.41705       410.10406       394.24402       375.91995       354.74475       329.23874       300.05869       268.89029       240.21495       214.07660       190.50023       167.35526       145.23657       124.37203       105.85537       89.547974       75.299667       62.024681       49.829327       38.709717       29.072521       20.827374       14.004588       9.3262606       6.5913815       5.5661674       4.5003505       3.3552880       1.9611852       1.1594096      0.77180123      0.75336444      0.65655774      0.48071799      0.18887405      2.88374554E-02  1.45379431E-03  1.72580767E-05  2.66493484E-03  2.36690231E-02  4.79766801E-02  5.74463643E-02  4.97341305E-02  2.13632248E-02  2.94785760E-03  2.06575714E-06  1.64431731E-05  3.58719699E-05  3.91479989E-05  2.86526156E-05  2.08398415E-05  1.71370775E-05  1.73672852E-05  1.62961842E-05  1.35158607E-05  8.82356017E-06  4.94813321E-06  2.30785440E-06  9.84658300E-07  2.21063743E-07  6.44694609E-09  9.90645344E-09  4.79661022E-09  1.45999772E-08  6.71421851E-09  1.10677742E-04  3.98013694E-03  1.15712164E-02  2.36451495E-02  3.99690270E-02  6.07790537E-02  7.88834244E-02  9.09579545E-02  9.58865657E-02  9.73642394E-02  9.70858335E-02  9.54624712E-02  8.88240486E-02  7.56082386E-02  5.60879894E-02  3.63334268E-02  2.08533518E-02  9.92204901E-03  2.94750812E-03  1.02399412E-04  2.65306153E-06  2.69142902E-06  9.99114927E-05  1.10664521E-04  3.86919510E-06  4.22021230E-06  1.12492978E-06  2.84090818E-09  2.52161281E-05  1.09667468E-04  1.92016436E-04  1.98166483E-04  1.34539121E-04  3.83949955E-05  5.07646860E-07   0.0000000       0.0000000       0.0000000       0.0000000       0.0000000       0.0000000       0.0000000       0.0000000       0.0000000       0.0000000       0.0000000       0.0000000       0.0000000       0.0000000       0.0000000       0.0000000       0.0000000       0.0000000       0.0000000       0.0000000       0.0000000       0.0000000       0.0000000       0.0000000       0.0000000       0.0000000       0.0000000       0.0000000       0.0000000       0.0000000       0.0000000       0.0000000       0.0000000       0.0000000       0.0000000       0.0000000       0.0000000       0.0000000       0.0000000       0.0000000       0.0000000       0.0000000       0.0000000       0.0000000       0.0000000       0.0000000       0.0000000       0.0000000       0.0000000       0.0000000       0.0000000       0.0000000       0.0000000       0.0000000       0.0000000       0.0000000       0.0000000       0.0000000       0.0000000       0.0000000       0.0000000       0.0000000       0.0000000       0.0000000       0.0000000       0.0000000       0.0000000       0.0000000       0.0000000       0.0000000       0.0000000       0.0000000       0.0000000       0.0000000       0.0000000       0.0000000       0.0000000       0.0000000       0.0000000       0.0000000       0.0000000       0.0000000       0.0000000       0.0000000    
  2.23938152E-02  4.12511565E-02  6.75548837E-02  9.55426544E-02  0.12499251      0.15951957      0.21105568      0.27609581      0.34502140      0.38955095      0.41025040      0.41153654      0.40633494      0.38206598      0.34965965      0.34216771      0.34734148      0.34831572      0.32811782      0.22719070      8.04144666E-02  5.31405676E-03   0.0000000       0.0000000       0.0000000       0.0000000       0.0000000       0.0000000       0.0000000       0.0000000      0.18192089       1.4094344       3.5418472       5.3066993       6.9394913       8.5300531       12.131945       17.789343       25.714125       34.420677       43.965183       54.010822       67.038689       82.591362       100.57562       116.16140       128.85114       138.01439       146.14333       153.19095       159.42140       162.72850       163.14638       161.10139       159.75870       159.79367       161.71005       163.92140       166.31378       168.85457       172.37129       176.92734       182.56335       188.20871       193.56538       198.54984       203.54849       208.68642       213.83762       219.44293       225.58011       232.31615       238.68134       244.24979       248.83842       253.17104       257.54156       262.30835       265.78802       267.15500       267.12155       267.93915       272.02551       280.40182       291.12476       302.78094       315.20059       329.94016       348.34015       369.94839       391.73013       410.11578       424.92224       436.54010       446.08414       453.12030       457.58472       459.25159       458.22214       455.33936       451.43372       446.45493       439.31836       427.57556       411.65543       391.47842       367.06744       338.78998       308.33200       279.90353       253.64059       229.58170       205.64069       182.42685       160.15363       139.74986       121.14088       104.27882       88.492729       73.896484       60.517933       48.595989       38.094162       29.058149       22.228178       17.419340       14.420312       11.579738       8.8684998       6.1310945       4.1066980       2.6340709       1.6659917      0.97311378      0.52273631      0.26453733      0.11806577      5.51749021E-02  7.35380873E-03  8.64262506E-03  8.25273320E-02  0.20372243      0.24987161      0.21688956      9.16393995E-02  1.27273472E-02  8.79924570E-04  7.00236065E-03  1.52781410E-02  1.66739337E-02  1.22060878E-02  8.88013002E-03  7.30298040E-03  7.39968056E-03  6.94244774E-03  5.75772626E-03  3.75934201E-03  2.10871804E-03  9.83930076E-04  4.19844728E-04  9.42430997E-05  2.74780632E-06  4.22231233E-06  2.04440266E-06  6.22277958E-06  2.86172303E-06  1.10680077E-04  3.98021145E-03  1.15711307E-02  2.36448888E-02  3.99686582E-02  6.07788935E-02  7.88830444E-02  9.09569412E-02  9.58837271E-02  9.73623767E-02  9.70892236E-02  9.54751298E-02  8.88441429E-02  7.56300613E-02  5.61077595E-02  3.63415554E-02  2.08382513E-02  9.86987352E-03  2.86817388E-03  6.11272771E-05  1.58374132E-06  1.60664524E-06  5.96421196E-05  6.60611331E-05  2.30972091E-06  2.51925894E-06  6.71534792E-07  1.69744074E-09  1.50527503E-05  6.54659452E-05  1.14624076E-04  1.18295335E-04  8.03130388E-05  2.29198686E-05  3.03039485E-07   0.0000000       0.0000000       0.0000000       0.0000000       0.0000000       0.0000000       0.0000000       0.0000000       0.0000000       0.0000000       0.0000000       0.0000000       0.0000000       0.0000000       0.0000000       0.0000000       0.0000000       0.0000000       0.0000000       0.0000000       0.0000000       0.0000000       0.0000000       0.0000000       0.0000000       0.0000000       0.0000000       0.0000000       0.0000000       0.0000000       0.0000000       0.0000000       0.0000000       0.0000000       0.0000000       0.0000000       0.0000000       0.0000000       0.0000000       0.0000000       0.0000000       0.0000000       0.0000000       0.0000000       0.0000000       0.0000000       0.0000000       0.0000000       0.0000000       0.0000000       0.0000000       0.0000000       0.0000000       0.0000000       0.0000000       0.0000000       0.0000000       0.0000000       0.0000000       0.0000000       0.0000000       0.0000000       0.0000000       0.0000000       0.0000000       0.0000000       0.0000000       0.0000000       0.0000000       0.0000000       0.0000000       0.0000000       0.0000000       0.0000000       0.0000000       0.0000000       0.0000000       0.0000000       0.0000000       0.0000000       0.0000000       0.0000000       0.0000000       0.0000000    
  8.84638447E-03  2.49912664E-02  4.87586334E-02  7.47730508E-02  0.10284993      0.13647515      0.18708456      0.25126681      0.31961003      0.36525500      0.38878596      0.39131197      0.38677615      0.36459351      0.33448005      0.32964656      0.33844253      0.34742630      0.32808891      0.22801958      8.06639716E-02  5.32927550E-03   0.0000000       0.0000000       0.0000000       0.0000000       0.0000000       0.0000000       0.0000000       0.0000000      0.13188465       1.0393463       2.6289923       3.6178479       4.2486367       4.6224236       6.9714179       11.353547       18.003334       25.385668       33.571606       42.244942       53.811214       67.835800       84.229713       98.390594       109.84209       117.99648       125.13017       131.20689       136.47295       139.12025       139.29495       137.13113       135.79900       135.91104       137.94370       140.31042       142.89320       145.63878       149.46146       154.43042       160.59267       166.74435       172.55019       177.90744       183.27625       188.79712       194.35297       200.30560       206.71452       213.64713       220.23193       226.09221       231.06036       235.84044       240.72255       246.05936       250.23369       252.58122       253.08452       254.89839       260.26733       269.47571       281.02682       293.58737       307.02121       322.70920       341.84213       364.02872       386.51813       406.08554       422.45529       436.33142       449.16965       460.59909       469.47467       473.47018       473.19217       471.52036       470.46149       469.30203       467.75549       461.58398       448.54498       430.10867       407.41370       380.59839       351.33319       323.61630       297.64172       273.45526       249.01500       224.93947       201.42552       179.23758       158.36484       138.86028       120.45415       103.26969       87.374252       72.905045       59.875313       48.338272       38.891506       31.396128       25.688219       20.445839       15.650151       11.180326       7.5843768       4.7345986       2.5799439       1.1762631      0.44904876      0.30331197      0.22680746      0.15884359      2.30544545E-02  1.57064795E-02  0.15520997      0.41380408      0.51102191      0.44384459      0.18803278      2.65894756E-02  1.95758464E-03  1.13184126E-02  3.03158853E-02  3.44161801E-02  3.07735931E-02  2.79065073E-02  2.45200060E-02  2.13169809E-02  1.78216044E-02  1.41897993E-02  1.06456317E-02  7.37919798E-03  4.51176893E-03  2.05083936E-03  4.20248747E-04  1.03165567E-05  1.58525454E-05  7.67565143E-06  2.33632582E-05  1.07442620E-05  1.07285843E-04  3.85748106E-03  1.11931525E-02  2.29869243E-02  3.90468910E-02  5.96153848E-02  7.75308609E-02  8.94854739E-02  9.43728164E-02  9.58691612E-02  9.56570730E-02  9.41442251E-02  8.76527801E-02  7.46108070E-02  5.52851371E-02  3.57194468E-02  2.04029344E-02  9.60395951E-03  2.73598009E-03  2.23816114E-05  5.79883022E-07  5.88269529E-07  2.18378391E-05  2.41881426E-05  8.45710076E-07  9.22430047E-07  2.45894569E-07  6.23902319E-10  5.51152971E-06  2.39702076E-05  4.19693461E-05  4.33135829E-05  2.94064303E-05  8.39205404E-06  1.10957181E-07   0.0000000       0.0000000       0.0000000       0.0000000       0.0000000       0.0000000       0.0000000       0.0000000       0.0000000       0.0000000       0.0000000       0.0000000       0.0000000       0.0000000       0.0000000       0.0000000       0.0000000       0.0000000       0.0000000       0.0000000       0.0000000       0.0000000       0.0000000       0.0000000       0.0000000       0.0000000       0.0000000       0.0000000       0.0000000       0.0000000       0.0000000       0.0000000       0.0000000       0.0000000       0.0000000       0.0000000       0.0000000       0.0000000       0.0000000       0.0000000       0.0000000       0.0000000       0.0000000       0.0000000       0.0000000       0.0000000       0.0000000       0.0000000       0.0000000       0.0000000       0.0000000       0.0000000       0.0000000       0.0000000       0.0000000       0.0000000       0.0000000       0.0000000       0.0000000       0.0000000       0.0000000       0.0000000       0.0000000       0.0000000       0.0000000       0.0000000       0.0000000       0.0000000       0.0000000       0.0000000       0.0000000       0.0000000       0.0000000       0.0000000       0.0000000       0.0000000       0.0000000       0.0000000       0.0000000       0.0000000       0.0000000       0.0000000       0.0000000       0.0000000    
  3.53065995E-03  1.63476206E-02  3.58129144E-02  5.80735318E-02  8.28779116E-02  0.11326761      0.15906711      0.21726704      0.27934006      0.32108828      0.34314910      0.34635258      0.34226027      0.32160449      0.29383060      0.29274166      0.30811515      0.32859930      0.31161204      0.21809128      7.70431757E-02  5.08728391E-03   0.0000000       0.0000000       0.0000000       0.0000000       0.0000000       0.0000000       0.0000000       0.0000000      0.11442913      0.90672320       2.2951248       3.0492263       3.3938668       3.4133120       5.3167467       9.1426287       15.120189       21.521858       28.432392       35.545216       45.477139       57.833733       72.556282       85.183777       95.267494       102.26969       108.21576       113.07954       117.07809       118.78661       118.41429       115.97697       114.38623       114.26765       115.81930       117.77897       120.04720       122.53178       126.15406       130.98471       137.07690       143.18581       148.96532       154.30670       159.69804       165.28622       170.96162       177.04362       183.58333       190.64812       197.43452       203.59846       208.98523       214.26997       219.73328       225.71744       230.67975       233.98758       235.62856       238.61380       245.08694       255.31261       267.89124       281.56812       296.23926       313.10229       333.19003       356.15646       379.56604       400.57089       418.87640       435.24625       451.14822       466.20734       479.04221       487.11685       490.79840       492.65659       495.28195       497.56842       499.23737       496.49646       486.55307       470.98849       450.84418       426.22791       398.74750       372.29968       347.05463       323.06027       298.36652       273.58936       248.89848       224.83302       201.46019       178.95816       157.57675       137.44604       118.67604       101.23222       85.196220       70.636787       58.021713       47.270882       38.286800       30.160177       22.888988       16.396788       11.003106       6.6176801       3.1800179       1.1083138      0.38912335      0.26870897      0.32246336      0.32012424      8.34037066E-02  6.18001409E-02  0.25493565      0.63076001      0.76617026      0.66129690      0.28424731      4.19413000E-02  3.63033544E-03  7.62036489E-03  2.20913235E-02  4.02137414E-02  5.01625463E-02  5.42209819E-02  4.86050360E-02  3.04413438E-02  1.63096543E-02  1.02721257E-02  7.99916312E-03  6.47061225E-03  4.81818570E-03  2.18063314E-03  4.04520513E-04  9.51340098E-06  1.46184066E-05  7.07809295E-06  2.15443979E-05  9.90781245E-06  9.86101368E-05  3.54476203E-03  1.02609955E-02  2.12070849E-02  3.62452492E-02  5.56145757E-02  7.25002587E-02  8.37580785E-02  8.83462206E-02  8.97514597E-02  8.95698071E-02  8.81830752E-02  8.21164399E-02  6.98825121E-02  5.17299511E-02  3.33593711E-02  1.90029554E-02  8.91292468E-03  2.51524942E-03  4.11650717E-06  1.06653921E-07  1.08196367E-07  4.01650095E-06  4.44879242E-06  1.55570959E-07  1.69681400E-07  4.52445050E-08  1.20056756E-10  1.01370108E-06  4.40868689E-06  7.71915438E-06  7.96638869E-06  5.40853944E-06  1.54349925E-06  2.04076667E-08   0.0000000       0.0000000       0.0000000       0.0000000       0.0000000       0.0000000       0.0000000       0.0000000       0.0000000       0.0000000       0.0000000       0.0000000       0.0000000       0.0000000       0.0000000       0.0000000       0.0000000       0.0000000       0.0000000       0.0000000       0.0000000       0.0000000       0.0000000       0.0000000       0.0000000       0.0000000       0.0000000       0.0000000       0.0000000       0.0000000       0.0000000       0.0000000       0.0000000       0.0000000       0.0000000       0.0000000       0.0000000       0.0000000       0.0000000       0.0000000       0.0000000       0.0000000       0.0000000       0.0000000       0.0000000       0.0000000       0.0000000       0.0000000       0.0000000       0.0000000       0.0000000       0.0000000       0.0000000       0.0000000       0.0000000       0.0000000       0.0000000       0.0000000       0.0000000       0.0000000       0.0000000       0.0000000       0.0000000       0.0000000       0.0000000       0.0000000       0.0000000       0.0000000       0.0000000       0.0000000       0.0000000       0.0000000       0.0000000       0.0000000       0.0000000       0.0000000       0.0000000       0.0000000       0.0000000       0.0000000       0.0000000       0.0000000       0.0000000       0.0000000    
  2.76189880E-03  1.27439946E-02  2.79475451E-02  4.55849059E-02  6.54205307E-02  8.98685083E-02  0.12667947      0.17346038      0.22335674      0.25694752      0.27475002      0.27741396      0.27413428      0.25752807      0.23520218      0.23452903      0.24732257      0.26439175      0.25079036      0.17560585      6.20287769E-02  4.09570942E-03   0.0000000       0.0000000       0.0000000       0.0000000       0.0000000       0.0000000       0.0000000       0.0000000      0.11854960      0.92890334       2.3350401       3.2457972       3.8483508       4.2052598       6.1599555       9.7371778       15.126012       20.843624       26.959011       33.195148       41.897087       52.708328       65.568039       76.486046       85.051949       90.805031       95.376869       98.741554       100.93221       101.54597       100.39917       97.584755       95.540703       95.160995       95.740547       96.575546       97.994431       99.779411       102.73058       106.91824       112.40378       117.96652       123.26936       128.20726       133.26707       138.59648       144.09546       150.05826       156.53400       163.58920       170.48187       176.89616       182.69016       188.49847       194.58603       201.27924       207.12607       211.53300       214.49080       218.84476       226.62125       238.06296       251.87152       266.87512       283.00003       301.26102       322.53461       346.49741       371.07220       393.82834       414.53171       433.69186       452.38159       470.15408       486.32471       499.83044       510.50494       518.81458       525.92419       531.20447       533.86780       532.21429       525.67389       514.24115       497.40686       475.48111       450.04367       425.29602       401.27063       377.97134       353.36710       328.08694       302.26816       276.25613       250.19284       224.40289       199.73897       176.34004       154.36307       133.55370       114.07711       96.022568       79.712646       65.142982       52.303680       40.791576       30.629251       21.796404       14.424539       8.4541502       3.8067007       1.1174996      0.46171331      0.29349083      0.43126133      0.50224340      0.20719407      0.17794277      0.41535962      0.87665379       1.0332706      0.88811934      0.40475225      8.31137002E-02  8.22026748E-03  2.84322654E-03  8.98535084E-03  5.20011187E-02  0.10124709      0.12732655      0.12315500      7.87653998E-02  4.69829515E-02  3.98117937E-02  4.25886177E-02  4.66862917E-02  4.77275588E-02  4.68337275E-02  4.49022800E-02  4.12214026E-02  3.60911116E-02  2.87686624E-02  1.97347533E-02  8.75790976E-03  1.67996879E-03  1.72396540E-03  9.23045631E-03  2.10152529E-02  3.52944359E-02  5.21346889E-02  6.62994906E-02  7.47034997E-02  7.75304660E-02  7.81505108E-02  7.74505436E-02  7.60209262E-02  7.07565546E-02  6.02082722E-02  4.46211174E-02  2.88474187E-02  1.64945163E-02  7.75456103E-03  2.18341639E-03  3.09653387E-06  8.02257105E-08  8.13857071E-08  3.02130547E-06  3.32684704E-06  9.46033083E-08  1.82597731E-07  1.07730997E-07  7.70223263E-09  2.23236327E-08  1.26599801E-07  2.47870759E-07  2.60387367E-07  1.78008790E-07  5.02067259E-08  6.63466504E-10   0.0000000       0.0000000       0.0000000       0.0000000       0.0000000       0.0000000       0.0000000       0.0000000       0.0000000       0.0000000       0.0000000       0.0000000       0.0000000       0.0000000       0.0000000       0.0000000       0.0000000       0.0000000       0.0000000       0.0000000       0.0000000       0.0000000       0.0000000       0.0000000       0.0000000       0.0000000       0.0000000       0.0000000       0.0000000       0.0000000       0.0000000       0.0000000       0.0000000       0.0000000       0.0000000       0.0000000       0.0000000       0.0000000       0.0000000       0.0000000       0.0000000       0.0000000       0.0000000       0.0000000       0.0000000       0.0000000       0.0000000       0.0000000       0.0000000       0.0000000       0.0000000       0.0000000       0.0000000       0.0000000       0.0000000       0.0000000       0.0000000       0.0000000       0.0000000       0.0000000       0.0000000       0.0000000       0.0000000       0.0000000       0.0000000       0.0000000       0.0000000       0.0000000       0.0000000       0.0000000       0.0000000       0.0000000       0.0000000       0.0000000       0.0000000       0.0000000       0.0000000       0.0000000       0.0000000       0.0000000       0.0000000       0.0000000       0.0000000       0.0000000    
  2.14994745E-03  9.95223410E-03  2.17392109E-02  3.50679122E-02  4.98033166E-02  6.77685365E-02  9.48746204E-02  0.12933612      0.16609225      0.19073454      0.20369810      0.20552765      0.20326526      0.19187596      0.17640212      0.17488141      0.18121134      0.18924372      0.17903158      0.12476965      4.41201776E-02  2.91439379E-03   0.0000000       0.0000000       0.0000000       0.0000000       0.0000000       0.0000000       0.0000000       0.0000000      0.12739681      0.98452693       2.4552104       3.6162148       4.6130624       5.4904766       7.5990176       10.959852       15.710517       20.862726       26.454990       32.251797       40.021973       49.442165       60.431213       69.635323       76.689369       81.210304       84.420586       85.928505       86.491753       86.449341       84.594513       81.264107       78.597450       77.337616       77.009125       76.951248       77.493729       78.466438       80.609428       83.991844       88.680664       93.513794       98.173164       102.56222       107.15012       112.08183       117.26665       122.98802       129.29718       136.26074       143.18170       149.76506       155.87959       162.12675       168.75871       176.09004       182.74023       188.14742       192.30525       197.93327       206.96902       219.63890       234.72141       251.10730       268.74622       288.51215       311.16107       336.38065       362.38046       387.06213       410.26620       432.20416       453.51138       473.65793       492.82870       511.36279       528.94983       544.46149       555.98615       563.36523       566.63904       566.56244       562.99524       555.41132       542.26538       524.01611       501.95682       479.73096       457.30515       434.70767       410.34491       384.77728       358.10437       330.32300       301.68311       272.65918       244.74771       218.08923       192.88763       168.65446       145.64217       123.96209       103.78122       85.175522       68.229362       53.111469       39.868275       28.540321       18.939487       11.057579       4.8032565       1.2899350      0.68864572      0.48930705      0.75895578      0.79573888      0.34829849      0.25981787      0.48278320      0.99710578       1.1672904      0.99931425      0.45265478      8.88164192E-02  6.13366347E-03  2.91780336E-04  6.04686001E-03  7.18589872E-02  0.16239320      0.20616280      0.19291207      0.10788210      4.67762463E-02  3.51339839E-02  3.82406712E-02  4.19550985E-02  4.29149270E-02  4.28559259E-02  4.15702127E-02  3.82452346E-02  3.34839076E-02  2.66914740E-02  1.83060281E-02  8.12378898E-03  1.55229541E-03  1.36761169E-03  7.91160762E-03  1.80487782E-02  3.01038977E-02  4.41110283E-02  5.58314137E-02  6.26859367E-02  6.49318844E-02  6.53875917E-02  6.47345707E-02  6.34913146E-02  5.90720214E-02  5.02604619E-02  3.72643955E-02  2.41134427E-02  1.38044469E-02  6.49523782E-03  1.82824000E-03  2.87312082E-06  7.44376862E-08  7.55140093E-08  2.80331938E-06  3.08680933E-06  8.77612720E-08  1.69406590E-07  9.99480747E-08  7.14304615E-09  2.07104307E-08  1.17456729E-07  2.29971320E-07  2.41583592E-07  1.65154887E-07  4.65803076E-08  6.15543672E-10   0.0000000       0.0000000       0.0000000       0.0000000       0.0000000       0.0000000       0.0000000       0.0000000       0.0000000       0.0000000       0.0000000       0.0000000       0.0000000       0.0000000       0.0000000       0.0000000       0.0000000       0.0000000       0.0000000       0.0000000       0.0000000       0.0000000       0.0000000       0.0000000       0.0000000       0.0000000       0.0000000       0.0000000       0.0000000       0.0000000       0.0000000       0.0000000       0.0000000       0.0000000       0.0000000       0.0000000       0.0000000       0.0000000       0.0000000       0.0000000       0.0000000       0.0000000       0.0000000       0.0000000       0.0000000       0.0000000       0.0000000       0.0000000       0.0000000       0.0000000       0.0000000       0.0000000       0.0000000       0.0000000       0.0000000       0.0000000       0.0000000       0.0000000       0.0000000       0.0000000       0.0000000       0.0000000       0.0000000       0.0000000       0.0000000       0.0000000       0.0000000       0.0000000       0.0000000       0.0000000       0.0000000       0.0000000       0.0000000       0.0000000       0.0000000       0.0000000       0.0000000       0.0000000       0.0000000       0.0000000       0.0000000       0.0000000       0.0000000       0.0000000    
  1.46157097E-03  6.79264823E-03  1.49702830E-02  2.44497396E-02  3.51138674E-02  4.82628606E-02  6.80774748E-02  9.32740122E-02  0.12015102      0.13820265      0.14775193      0.14917958      0.14755014      0.13931370      0.12808280      0.12687643      0.13126588      0.13683246      0.12942101      9.01606157E-02  3.18843685E-02  2.10620835E-03   0.0000000       0.0000000       0.0000000       0.0000000       0.0000000       0.0000000       0.0000000       0.0000000      0.13223849       1.0156263       2.5219600       3.7997298       4.9694080       6.0552487       8.2273273       11.484752       15.933922       20.618271       25.562525       30.546801       37.199413       45.234383       54.583164       62.273479       67.985802       71.386383       73.528221       73.938400       73.871117       72.919937       70.302330       66.363358       63.048603       60.754993       59.811508       59.332233       59.352695       59.689754       61.137226       63.849602       67.873695       72.087944       76.192307       80.098412       84.257256       88.811157       93.677078       99.132690       105.23180       112.04295       118.90047       125.52534       131.79419       138.29572       145.27835       153.05534       160.27605       166.39275       171.40242       177.97868       188.02708       201.76779       218.01459       235.68620       254.74295       275.99155       300.12973       326.85852       354.49390       381.06500       406.44339       430.78928       454.65219       477.45190       499.68866       522.19775       544.58893       565.04041       580.33850       590.47009       595.74860       597.66180       596.00220       590.88812       581.44012       568.11102       551.45935       532.82074       512.30798       490.11111       466.03732       440.42902       413.34879       384.18863       353.36011       321.47464       290.65863       261.04477       232.87949       205.46053       179.12175       153.99365       130.07578       107.52279       86.509941       67.791496       51.434990       37.541672       25.525070       15.443393       7.2017326       2.5076244       1.5390272       1.2943922       1.5552169       1.4316804      0.55810696      0.25326312      0.35944533      0.86863333       1.0485640      0.90296936      0.38408214      5.66219278E-02  4.52743471E-03  2.67267488E-02  7.50863999E-02  0.16291794      0.26045772      0.29324609      0.25244334      0.12218592      2.72996873E-02  5.14111528E-03  2.41304212E-03  3.68135050E-03  5.72850415E-03  3.12509225E-03  1.43732736E-03  9.80872079E-04  8.71728174E-04  7.71654770E-04  5.98589191E-04  5.21377311E-04  2.02169205E-04  1.21262693E-03  3.52513185E-03  7.26148114E-03  1.50250774E-02  2.76116580E-02  3.92691195E-02  4.76137809E-02  5.20356931E-02  5.42587899E-02  5.47991358E-02  5.43043017E-02  5.08022197E-02  4.32683267E-02  3.19511145E-02  2.04981528E-02  1.15855485E-02  5.40469820E-03  1.52838777E-03  6.86973635E-07  1.77987722E-08  1.80561521E-08  6.70292877E-07  7.42441046E-07  2.59665480E-08  2.83199810E-08  7.55767360E-09  2.09351095E-11  1.69169141E-07  7.35733522E-07  1.28819340E-06  1.32945252E-06  9.02591466E-07  2.57582997E-07  3.40568374E-09   0.0000000       0.0000000       0.0000000       0.0000000       0.0000000       0.0000000       0.0000000       0.0000000       0.0000000       0.0000000       0.0000000       0.0000000       0.0000000       0.0000000       0.0000000       0.0000000       0.0000000       0.0000000       0.0000000       0.0000000       0.0000000       0.0000000       0.0000000       0.0000000       0.0000000       0.0000000       0.0000000       0.0000000       0.0000000       0.0000000       0.0000000       0.0000000       0.0000000       0.0000000       0.0000000       0.0000000       0.0000000       0.0000000       0.0000000       0.0000000       0.0000000       0.0000000       0.0000000       0.0000000       0.0000000       0.0000000       0.0000000       0.0000000       0.0000000       0.0000000       0.0000000       0.0000000       0.0000000       0.0000000       0.0000000       0.0000000       0.0000000       0.0000000       0.0000000       0.0000000       0.0000000       0.0000000       0.0000000       0.0000000       0.0000000       0.0000000       0.0000000       0.0000000       0.0000000       0.0000000       0.0000000       0.0000000       0.0000000       0.0000000       0.0000000       0.0000000       0.0000000       0.0000000       0.0000000       0.0000000       0.0000000       0.0000000       0.0000000       0.0000000    
  6.80947443E-04  3.18458048E-03  7.48888543E-03  1.35905873E-02  2.12951470E-02  3.14569585E-02  4.66458276E-02  6.59824237E-02  8.66217911E-02  0.10062733      0.10828631      0.10981475      0.10869464      0.10284021      9.46868286E-02  9.35956612E-02  9.63005349E-02  9.96659473E-02  9.41882506E-02  6.55157715E-02  2.31771842E-02  1.53123180E-03   0.0000000       0.0000000       0.0000000       0.0000000       0.0000000       0.0000000       0.0000000       0.0000000      0.12660673      0.96784109       2.3958430       3.6737151       4.8965507       6.0758686       8.1439152       11.091920       15.001182       19.068014       23.308863       27.528175       33.163628       39.964748       47.879814       54.247368       58.792641       61.202412       62.622334       62.892693       62.751865       60.919651       57.612686       52.949051       48.986542       46.147522       44.768398       43.875237       43.643242       43.678276       44.448719       46.573471       50.068207       53.786186       57.448528       60.976387       64.791191       69.030006       73.613029       78.832916       84.750076       91.436806       98.219620       104.81841       111.11151       117.70335       124.85126       132.87968       140.41162       146.89128       152.31918       159.43311       170.18527       184.80315       202.08067       220.91786       241.26994       263.96948       289.73282       318.28116       347.79895       376.17410       403.26877       429.50354       455.78580       481.50732       506.91122       532.38629       557.53217       580.70166       599.09662       612.72937       621.41602       625.14716       624.11426       620.29688       614.67657       607.76404       598.84845       584.90656       566.44220       544.01166       520.10010       494.65033       467.67737       437.55881       404.94693       370.57355       337.21432       304.97391       274.13580       243.79437       214.35861       185.97742       158.49113       132.13103       107.16166       84.879845       65.377258       48.814678       34.330898       22.035976       11.833317       5.5972638       3.1907167       2.9941049       2.8757956       2.3301785      0.85169685      0.17575768      0.14315899      0.47058138      0.63239408      0.56963885      0.22022843      3.41163091E-02  3.60856205E-02  0.14507493      0.25901023      0.34676090      0.40007782      0.40715450      0.32887736      0.15716767      3.35565545E-02  5.20024775E-03  2.44078948E-03  3.72370007E-03  5.79440920E-03  3.16104619E-03  1.45386171E-03  9.92154935E-04  8.81756423E-04  7.80532253E-04  6.05475740E-04  5.27375669E-04  1.70386760E-04   0.0000000       0.0000000      9.17603320E-05  4.56302660E-03  1.44683523E-02  2.48146094E-02  3.36189866E-02  4.04564813E-02  4.53747921E-02  4.70947810E-02  4.70851697E-02  4.55633327E-02  3.97754796E-02  2.90903877E-02  1.82132497E-02  9.95335728E-03  4.53987485E-03  1.30731345E-03  6.94877201E-07  1.80035400E-08  1.82638829E-08  6.78004483E-07  7.50983077E-07  2.62652886E-08  2.86458022E-08  7.64462360E-09  2.11759568E-11  1.71115317E-07  7.44198019E-07  1.30301351E-06  1.34474772E-06  9.12975622E-07  2.60546557E-07  3.44486550E-09   0.0000000       0.0000000       0.0000000       0.0000000       0.0000000       0.0000000       0.0000000       0.0000000       0.0000000       0.0000000       0.0000000       0.0000000       0.0000000       0.0000000       0.0000000       0.0000000       0.0000000       0.0000000       0.0000000       0.0000000       0.0000000       0.0000000       0.0000000       0.0000000       0.0000000       0.0000000       0.0000000       0.0000000       0.0000000       0.0000000       0.0000000       0.0000000       0.0000000       0.0000000       0.0000000       0.0000000       0.0000000       0.0000000       0.0000000       0.0000000       0.0000000       0.0000000       0.0000000       0.0000000       0.0000000       0.0000000       0.0000000       0.0000000       0.0000000       0.0000000       0.0000000       0.0000000       0.0000000       0.0000000       0.0000000       0.0000000       0.0000000       0.0000000       0.0000000       0.0000000       0.0000000       0.0000000       0.0000000       0.0000000       0.0000000       0.0000000       0.0000000       0.0000000       0.0000000       0.0000000       0.0000000       0.0000000       0.0000000       0.0000000       0.0000000       0.0000000       0.0000000       0.0000000       0.0000000       0.0000000       0.0000000       0.0000000       0.0000000       0.0000000    
  1.21492856E-04  5.74969396E-04  1.69175607E-03  4.63892380E-03  1.00958692E-02  1.81232505E-02  2.99798120E-02  4.51042354E-02  6.12619668E-02  7.23709688E-02  7.87093192E-02  8.03757459E-02  7.96803162E-02  7.57104680E-02  6.99966028E-02  6.92268535E-02  7.09975064E-02  7.30677098E-02  6.90051317E-02  4.79398146E-02  1.69664696E-02  1.12106698E-03   0.0000000       0.0000000       0.0000000       0.0000000       0.0000000       0.0000000       0.0000000       0.0000000      0.11835310      0.89882362       2.2160270       3.4876802       4.7788439       6.0912671       8.0191898       10.555995       13.757474       17.114719       20.638544       24.168652       28.876225       34.547653       41.146420       46.329285       49.865013       51.455322       52.349007       52.489594       52.259686       50.271667       46.680267       41.507854       37.126053       33.985966       32.433140       31.370541       31.090185       31.099438       31.352810       33.055286       36.212399       39.575085       42.871117       46.023197       49.452763       53.297932       57.490677       62.295837       67.773613       73.998894       80.372223       86.650703       92.725128       99.180389       106.26658       114.31979       121.96371       128.64705       134.37434       141.90858       153.22131       168.54506       186.66975       206.49121       227.97021       251.93674       279.10577       309.19476       340.40903       370.65851       399.78482       428.20035       456.79791       484.99387       512.86469       540.54559       567.60382       592.79626       614.12103       631.58038       644.29980       649.91254       649.26422       647.31067       645.49518       643.72388       641.41608       632.84839       617.29688       596.07324       573.20868       548.36810       521.55585       490.69769       456.58972       420.08667       384.46921       349.84369       316.52963       283.43997       251.05452       219.53871       188.56612       158.44586       129.53255       103.67213       80.980446       61.678730       44.636040       30.015835       17.723454       9.7729464       5.7372551       5.2852573       4.5675521       3.3693252       1.2358468      0.14051737      1.22976368E-02  0.11283205      0.22263542      0.21638271      8.54192898E-02  5.30356243E-02  0.21824566      0.57384437      0.82861030      0.90035880      0.90736550      0.89801323      0.76953858      0.54590827      0.36470389      0.26555687      0.21606940      0.17032769      0.12537996      8.06785449E-02  4.89666611E-02  3.13000008E-02  2.80468315E-02  2.54764128E-02  1.98711865E-02  9.71804466E-03  1.92062103E-03   0.0000000       0.0000000      7.70495535E-05  3.81478993E-03  1.12126367E-02  1.92878488E-02  2.68749073E-02  3.34390700E-02  3.86068448E-02  4.04550061E-02  4.04549204E-02  4.04218435E-02  3.61868776E-02  2.61710789E-02  1.59347076E-02  8.37952737E-03  3.71700013E-03  1.09166396E-03   0.0000000       0.0000000       0.0000000       0.0000000       0.0000000       0.0000000       0.0000000       0.0000000       0.0000000       0.0000000       0.0000000       0.0000000       0.0000000       0.0000000       0.0000000       0.0000000       0.0000000       0.0000000       0.0000000       0.0000000       0.0000000       0.0000000       0.0000000       0.0000000       0.0000000       0.0000000       0.0000000       0.0000000       0.0000000       0.0000000       0.0000000       0.0000000       0.0000000       0.0000000       0.0000000       0.0000000       0.0000000       0.0000000       0.0000000       0.0000000       0.0000000       0.0000000       0.0000000       0.0000000       0.0000000       0.0000000       0.0000000       0.0000000       0.0000000       0.0000000       0.0000000       0.0000000       0.0000000       0.0000000       0.0000000       0.0000000       0.0000000       0.0000000       0.0000000       0.0000000       0.0000000       0.0000000       0.0000000       0.0000000       0.0000000       0.0000000       0.0000000       0.0000000       0.0000000       0.0000000       0.0000000       0.0000000       0.0000000       0.0000000       0.0000000       0.0000000       0.0000000       0.0000000       0.0000000       0.0000000       0.0000000       0.0000000       0.0000000       0.0000000       0.0000000       0.0000000       0.0000000       0.0000000       0.0000000       0.0000000       0.0000000       0.0000000       0.0000000       0.0000000       0.0000000       0.0000000       0.0000000       0.0000000       0.0000000       0.0000000    
   0.0000000       0.0000000       0.0000000      9.43671505E-04  4.04106732E-03  9.04296804E-03  1.68874096E-02  2.72102300E-02  3.84206511E-02  4.61231880E-02  5.05732894E-02  5.18551655E-02  5.16047068E-02  4.94564958E-02  4.63177972E-02  4.63023856E-02  4.83078659E-02  5.06465845E-02  4.80954647E-02  3.44206803E-02  1.39748054E-02  2.79365270E-03  3.72781680E-04  3.05966882E-04  2.09093967E-04  1.89094906E-04  1.13786213E-04  1.56315327E-05  2.04838689E-05  2.48222887E-06  0.11358052      0.85788435       2.1080909       3.3906448       4.7477250       6.1701899       8.0291872       10.311593       13.049630       15.886525       18.825619       21.734419       25.567995       30.151648       35.461388       39.536255       42.190346       43.161987       43.632851       43.596306       43.255062       41.244114       37.681068       32.540356       28.207201       25.118814       23.608036       22.558037       22.278547       22.279531       22.366283       23.916866       26.944532       30.077082       33.019039       35.678528       38.543354       41.768005       45.316658       49.323902       53.833355       58.918465       64.248619       69.707382       75.225845       81.272423       88.047020       95.885056       103.52039       110.45390       116.69390       124.84098       136.75136       152.64497       171.39467       191.96828       214.34564       239.25101       267.30988       298.22055       330.49796       362.39554       393.77045       424.60172       455.16843       484.94128       514.40070       544.39063       574.37329       602.96704       627.81671       648.95227       665.31842       674.47607       677.01038       677.36414       678.18457       678.39404       678.25372       674.19098       663.02441       646.39063       626.39465       602.83771       575.79523       544.20673       508.75461       470.43155       432.73761       395.85327       360.13910       324.35953       289.05969       254.42239       219.92731       185.96864       152.99713       123.45399       97.479752       75.360489       55.676662       38.649090       24.186197       14.536340       9.2209368       7.9835792       6.5161448       4.6152134       1.7938855      0.27547008      7.28504807E-02  8.96573588E-02  0.14342861      0.23532780      0.25148585      0.44459301      0.89798284       1.5946184       2.0679111       2.1530218       2.1519976       2.1277907       1.9571850       1.7034471       1.4645844       1.2635281       1.1215658      0.98288137      0.84301746      0.70237279      0.58261544      0.48642296      0.41496235      0.34883091      0.28323606      0.21667767      0.15920976      0.11566242      8.09823200E-02  5.58998398E-02  4.27601077E-02  4.14987318E-02  4.26221304E-02  4.19147164E-02  3.77727747E-02  3.42792012E-02  3.27527337E-02  3.27288546E-02  3.25345807E-02  2.88815610E-02  2.06654239E-02  1.22617977E-02  6.32496644E-03  2.77703046E-03  1.03150425E-03  5.72797609E-04  1.33257615E-03  2.06676009E-03  2.08502426E-03  1.34293712E-03  3.83013481E-04  2.68374406E-05  6.42671694E-07  7.97307052E-07  1.67695998E-05  2.30159403E-05  1.74395154E-07   0.0000000       0.0000000       0.0000000       0.0000000       0.0000000       0.0000000       0.0000000       0.0000000       0.0000000       0.0000000       0.0000000       0.0000000       0.0000000       0.0000000       0.0000000       0.0000000       0.0000000       0.0000000       0.0000000       0.0000000       0.0000000       0.0000000       0.0000000       0.0000000       0.0000000       0.0000000       0.0000000       0.0000000       0.0000000       0.0000000       0.0000000       0.0000000       0.0000000       0.0000000       0.0000000       0.0000000       0.0000000       0.0000000       0.0000000       0.0000000       0.0000000       0.0000000       0.0000000       0.0000000       0.0000000       0.0000000       0.0000000       0.0000000       0.0000000       0.0000000       0.0000000       0.0000000       0.0000000       0.0000000       0.0000000       0.0000000       0.0000000       0.0000000       0.0000000       0.0000000       0.0000000       0.0000000       0.0000000       0.0000000       0.0000000       0.0000000       0.0000000       0.0000000       0.0000000       0.0000000       0.0000000       0.0000000       0.0000000       0.0000000       0.0000000       0.0000000       0.0000000       0.0000000       0.0000000       0.0000000       0.0000000       0.0000000       0.0000000       0.0000000       0.0000000       0.0000000       0.0000000       0.0000000    
   0.0000000       0.0000000       0.0000000      3.96176096E-04  1.65053806E-03  3.83743527E-03  7.78661575E-03  1.32897831E-02  1.94199942E-02  2.34667342E-02  2.56564803E-02  2.61853356E-02  2.62438506E-02  2.56438125E-02  2.49092840E-02  2.62856502E-02  2.95472071E-02  3.34552042E-02  3.30178961E-02  2.66031064E-02  1.58682410E-02  8.50209780E-03  4.04609088E-03  2.09109532E-03  7.51039770E-04  3.19203071E-04  3.84563027E-04  5.72551398E-05  7.13572517E-05  8.64698904E-06  0.11284774      0.84960622       2.0816908       3.3786058       4.7678852       6.2287931       8.0366049       10.165104       12.627226       15.090112       17.549244       19.894127       22.904045       26.444670       30.501610       33.553501       35.460838       36.017639       36.185635       35.959202       35.520035       33.643475       30.428442       25.843946       22.025343       19.357656       18.142057       17.322809       17.102415       17.116102       17.456055       19.178005       22.322277       25.387548       28.024633       30.110380       32.266079       34.677673       37.361774       40.220459       43.264393       46.561249       50.242973       54.408222       59.055687       64.441353       70.671776       78.070274       85.587784       92.824577       99.792290       108.74477       121.29115       137.62134       156.77605       177.86984       200.89304       226.40587       254.88904       286.06250       318.75543       351.58487       384.42642       417.06766       449.48013       481.16806       512.81958       545.63184       579.01263       611.35962       639.87463       664.50964       684.38672       698.45074       706.63306       710.14563       712.21686       712.05365       710.34851       708.02148       702.62262       693.98218       678.66919       657.04224       629.33386       597.01263       560.38184       520.58618       481.03375       442.05539       404.05582       365.69183       327.56729       289.88120       251.89423       214.09137       177.02409       143.76746       114.48687       89.535896       67.189781       47.729710       31.067877       19.691406       13.088512       10.993126       8.7389021       6.1157908       2.6015172      0.66395515      0.39979923      0.39896256      0.43560934      0.73275352      0.93526310       1.4726176       2.2639987       3.2879491       3.9734251       4.0970373       4.0956583       4.0669136       3.8919630       3.6654565       3.4202757       3.1747351       2.9498219       2.7125642       2.4620976       2.2029166       1.9417267       1.6826621       1.4276032       1.1887140      0.97115225      0.77882046      0.60693109      0.45557517      0.32295758      0.22347625      0.15966335      0.13284065      0.11436573      9.12500918E-02  5.95953278E-02  3.40699628E-02  2.27245875E-02  2.06430238E-02  2.04149336E-02  1.82959903E-02  1.29161151E-02  7.33443676E-03  3.97676975E-03  2.20228476E-03  1.57532096E-03  2.43836315E-03  5.64807886E-03  8.35586060E-03  8.24567769E-03  5.25815133E-03  1.48851052E-03  8.15393141E-05  1.95260236E-06  2.42242254E-06  5.84334957E-05  8.02008581E-05  6.07693778E-07   0.0000000       0.0000000       0.0000000       0.0000000       0.0000000       0.0000000       0.0000000       0.0000000       0.0000000       0.0000000       0.0000000       0.0000000       0.0000000       0.0000000       0.0000000       0.0000000       0.0000000       0.0000000       0.0000000       0.0000000       0.0000000       0.0000000       0.0000000       0.0000000       0.0000000       0.0000000       0.0000000       0.0000000       0.0000000       0.0000000       0.0000000       0.0000000       0.0000000       0.0000000       0.0000000       0.0000000       0.0000000       0.0000000       0.0000000       0.0000000       0.0000000       0.0000000       0.0000000       0.0000000       0.0000000       0.0000000       0.0000000       0.0000000       0.0000000       0.0000000       0.0000000       0.0000000       0.0000000       0.0000000       0.0000000       0.0000000       0.0000000       0.0000000       0.0000000       0.0000000       0.0000000       0.0000000       0.0000000       0.0000000       0.0000000       0.0000000       0.0000000       0.0000000       0.0000000       0.0000000       0.0000000       0.0000000       0.0000000       0.0000000       0.0000000       0.0000000       0.0000000       0.0000000       0.0000000       0.0000000       0.0000000       0.0000000       0.0000000       0.0000000       0.0000000       0.0000000       0.0000000       0.0000000    
   0.0000000       0.0000000       0.0000000      1.14082533E-04  4.75015666E-04  1.09732547E-03  2.20757234E-03  3.75796109E-03  5.46730403E-03  6.47879066E-03  6.89997058E-03  6.89989747E-03  7.14029511E-03  7.86834676E-03  9.23140533E-03  1.26506155E-02  1.77708901E-02  2.37345230E-02  2.61410065E-02  2.48926897E-02  2.17616223E-02  1.82750095E-02  1.23896189E-02  5.68111241E-03  1.53353484E-03  2.96201441E-04  7.40220072E-04  1.19090320E-04  1.58757844E-04  1.92382977E-05  0.10890172      0.81675243       1.9961435       3.2871733       4.7021928       6.2123961       7.9577489       9.9052105       12.050167       14.143106       16.173611       18.056105       20.376936       23.038725       26.031776       28.253952       29.603842       29.926758       29.937544       29.613504       29.104620       27.476067       24.815670       21.102129       18.058161       15.996172       15.172670       14.674312       14.538838       14.576805       15.400658       17.450472       20.797121       23.866751       26.254509       27.804569       29.273659       30.879360       32.690079       34.375347       35.912498       37.363464       39.321190       42.098858       45.763329       50.357037       55.893387       62.681870       69.900734       77.254288       84.758972       94.304520       107.24108       123.72768       142.98598       164.28893       187.64278       213.42427       241.95322       272.99609       305.70465       339.07825       372.98102       407.20767       441.67221       475.90768       510.41241       546.09235       582.37109       617.70142       649.44177       677.38434       700.90509       719.59326       733.36121       742.31006       746.22577       745.53998       743.42212       742.02661       741.07874       739.45038       730.85071       711.46552       683.46967       650.76910       613.29871       572.33514       531.19708       490.35034       450.23914       409.43393       368.59225       327.92902       286.47958       244.82202       203.60948       166.55582       133.85216       105.92107       80.742889       58.661167       39.597149       26.224558       18.012674       14.694783       11.358752       7.7944903       3.4556243       1.0227653      0.69259632      0.69259632      0.75979894       1.3333588       1.9319454       2.8991985       4.1169720       5.5450249       6.4938664       6.6656694       6.6654282       6.6496153       6.4795194       6.2922492       6.0386534       5.7308836       5.3888874       5.0149083       4.6138415       4.1961689       3.7463193       3.2699456       2.7699502       2.3005395       1.8801070       1.5196710       1.1951329      0.90305990      0.64073515      0.44087806      0.31029290      0.25178894      0.20938438      0.15800750      9.05610844E-02  3.63826305E-02  1.32560981E-02  7.74646970E-03  7.90193491E-03  8.49793851E-03  5.75561589E-03  2.71193078E-03  1.87220797E-03  1.70461694E-03  2.41457089E-03  5.05026849E-03  1.05564212E-02  1.47964545E-02  1.43361986E-02  9.16159991E-03  2.75059999E-03  2.34500199E-04  5.61549268E-06  6.96666893E-06  9.94713482E-05  1.36509349E-04  1.03435138E-06   0.0000000       0.0000000       0.0000000       0.0000000       0.0000000       0.0000000       0.0000000       0.0000000       0.0000000       0.0000000       0.0000000       0.0000000       0.0000000       0.0000000       0.0000000       0.0000000       0.0000000       0.0000000       0.0000000       0.0000000       0.0000000       0.0000000       0.0000000       0.0000000       0.0000000       0.0000000       0.0000000       0.0000000       0.0000000       0.0000000       0.0000000       0.0000000       0.0000000       0.0000000       0.0000000       0.0000000       0.0000000       0.0000000       0.0000000       0.0000000       0.0000000       0.0000000       0.0000000       0.0000000       0.0000000       0.0000000       0.0000000       0.0000000       0.0000000       0.0000000       0.0000000       0.0000000       0.0000000       0.0000000       0.0000000       0.0000000       0.0000000       0.0000000       0.0000000       0.0000000       0.0000000       0.0000000       0.0000000       0.0000000       0.0000000       0.0000000       0.0000000       0.0000000       0.0000000       0.0000000       0.0000000       0.0000000       0.0000000       0.0000000       0.0000000       0.0000000       0.0000000       0.0000000       0.0000000       0.0000000       0.0000000       0.0000000       0.0000000       0.0000000       0.0000000       0.0000000       0.0000000       0.0000000    
  9.59141034E-05  6.65138868E-05  1.95181892E-05  5.43874478E-07  6.84492875E-07  1.58123680E-06  3.18109505E-06  5.41518875E-06  7.87833596E-06  9.33587671E-06  9.94279162E-06  9.94268703E-06  4.10884793E-04  1.91500899E-03  4.51780297E-03  9.80033912E-03  1.72209125E-02  2.58432478E-02  3.15852538E-02  3.35710421E-02  3.36882137E-02  3.19587812E-02  2.29975712E-02  1.01626851E-02  2.53104581E-03  4.73579537E-04  1.18349469E-03  2.00402152E-04  2.96854065E-04  3.59733858E-05  9.40302461E-02  0.70094860       1.7095764       2.9014332       4.2720432       5.7932606       7.3791647       9.0052824       10.654600       12.297590       13.922891       15.473903       17.327579       19.412588       21.719629       23.434118       24.478224       24.733940       24.736507       24.461416       24.029833       22.744062       20.681055       17.824165       15.554249       14.165502       13.740790       13.537123       13.524372       13.560503       14.632629       16.834896       20.244556       23.310114       25.601114       26.963758       28.068411       29.107956       30.158337       30.927065       31.431059       31.818853       32.635712       34.374775       37.203697       41.030457       45.834202       51.919476       58.576054       65.562309       72.903107       82.323593       95.059288       111.25852       130.24309       151.37221       174.67587       200.41235       228.79994       259.64139       292.31912       326.10468       360.85385       396.38303       432.58804       469.03134       506.02026       544.16321       582.91687       620.85895       655.62030       686.91138       714.25977       737.57288       756.67889       771.22766       779.78906       782.92438       784.25397       786.18646       787.68054       788.14679       784.01904       766.54468       739.65216       707.36139       669.60059       627.71692       585.33337       542.91962       500.94620       457.89285       414.46841       370.90430       326.02866       280.50815       235.09511       194.10550       157.75833       126.54434       98.192368       73.108902       51.234501       35.319687       24.843630       19.556536       14.527658       9.5598259       4.1059775      0.98989296      0.56153524      0.56156725      0.67658585       1.6838088       2.9218597       4.5280943       6.3301129       8.2538443       9.5238104       9.7564602       9.7568827       9.7421799       9.5547113       9.3842239       9.0872498       8.6711655       8.1562300       7.5930161       6.9954686       6.3816485       5.7105789       4.9889588       4.2214775       3.5005822       2.8569033       2.3081393       1.8134130       1.3665817      0.96362472      0.65662801      0.45669100      0.36831030      0.30440739      0.22610788      0.12247283      3.97203900E-02  8.88279080E-03  2.77056289E-03  3.18286708E-03  5.88623108E-03  3.73975723E-03  9.28738911E-04  1.17389322E-03  1.88596407E-03  3.88590200E-03  7.58009125E-03  1.31610399E-02  1.71274152E-02  1.62717868E-02  1.05678691E-02  3.62312188E-03  5.73471305E-04  1.37327297E-05  1.70370240E-05  9.92361311E-05  1.36127521E-04  1.03145862E-06   0.0000000       0.0000000       0.0000000       0.0000000       0.0000000       0.0000000       0.0000000       0.0000000       0.0000000       0.0000000       0.0000000       0.0000000       0.0000000       0.0000000       0.0000000       0.0000000       0.0000000       0.0000000       0.0000000       0.0000000       0.0000000       0.0000000       0.0000000       0.0000000       0.0000000       0.0000000       0.0000000       0.0000000       0.0000000       0.0000000       0.0000000       0.0000000       0.0000000       0.0000000       0.0000000       0.0000000       0.0000000       0.0000000       0.0000000       0.0000000       0.0000000       0.0000000       0.0000000       0.0000000       0.0000000       0.0000000       0.0000000       0.0000000       0.0000000       0.0000000       0.0000000       0.0000000       0.0000000       0.0000000       0.0000000       0.0000000       0.0000000       0.0000000       0.0000000       0.0000000       0.0000000       0.0000000       0.0000000       0.0000000       0.0000000       0.0000000       0.0000000       0.0000000       0.0000000       0.0000000       0.0000000       0.0000000       0.0000000       0.0000000       0.0000000       0.0000000       0.0000000       0.0000000       0.0000000       0.0000000       0.0000000       0.0000000       0.0000000       0.0000000       0.0000000       0.0000000       0.0000000       0.0000000    
  4.10717708E-04  2.84432113E-04  8.30211939E-05  1.61360333E-06  6.95129529E-07  3.39144640E-06  4.80580320E-06  1.51110237E-06  4.76619242E-08  6.24800450E-05  3.31231917E-04  9.20834369E-04  2.33257446E-03  4.90599172E-03  8.91655125E-03  1.67422574E-02  2.75665596E-02  4.00582813E-02  4.85601276E-02  5.17299399E-02  5.19270599E-02  4.92895655E-02  3.55645977E-02  1.58155132E-02  4.03395016E-03  7.62707030E-04  1.90603489E-03  3.14466772E-04  4.42426972E-04  5.36148182E-05  7.24289864E-02  0.54061985       1.3199253       2.2310326       3.2738254       4.4287033       5.6586351       6.9463353       8.2824717       9.6252785       10.967678       12.263019       13.831505       15.613601       17.601025       19.115707       20.093575       20.448978       20.568691       20.457806       20.203482       19.337767       17.926512       15.968365       14.449682       13.639225       13.497068       13.493509       13.691417       13.931078       15.163683       17.453100       20.879965       23.896904       26.074631       27.257053       28.136625       28.912643       29.662855       30.078239       30.170385       30.170498       30.414307       31.498720       33.656754       36.764591       40.814308       46.119843       51.973171       58.139809       64.656418       73.271111       85.240341       100.72079       119.05903       139.63330       162.50551       187.87390       215.90869       246.43408       278.99359       313.04453       348.44769       384.98947       422.49246       460.55054       499.42487       539.65625       580.73401       621.27740       658.99066       693.60522       724.78247       752.67560       776.93146       797.32178       813.51160       825.25574       833.19757       839.08234       841.14801       841.73395       837.83209       821.82544       797.32391       766.17883       728.64874       686.08887       642.79077       599.10468       555.51422       510.40891       464.54654       418.17410       369.92773       320.55957       270.91852       225.88832       185.71777       150.96494       119.14652       90.732819       65.694283       46.750366       33.418320       25.480827       18.232857       11.497935       4.7486939      0.83476108      0.29092196      0.29096338      0.46364316       1.9960825       4.0104303       6.3858423       8.8847370       11.390678       13.042085       13.361206       13.365899       13.348299       13.125964       12.947277       12.572372       12.005917       11.270064       10.471745       9.6363020       8.7909307       7.8661699       6.8694134       5.8076544       4.8102741       3.9198461       3.1606612       2.4763901       1.8586984       1.3019376      0.87897164      0.60533589      0.48741046      0.40311950      0.29800645      0.15668242      4.43907455E-02  8.12974945E-03  3.18504823E-03  3.79922241E-03  7.67712621E-03  4.72961972E-03  9.11738316E-04  1.53365382E-03  3.67400935E-03  6.77353982E-03  1.01448484E-02  1.38316490E-02  1.59993041E-02  1.48321856E-02  9.95874777E-03  4.21607215E-03  1.17271813E-03  1.85757279E-04  9.94172660E-05  4.41872398E-05  6.00784442E-05  4.55223159E-07   0.0000000       0.0000000       0.0000000       0.0000000       0.0000000       0.0000000       0.0000000       0.0000000       0.0000000       0.0000000       0.0000000       0.0000000       0.0000000       0.0000000       0.0000000       0.0000000       0.0000000       0.0000000       0.0000000       0.0000000       0.0000000       0.0000000       0.0000000       0.0000000       0.0000000       0.0000000       0.0000000       0.0000000       0.0000000       0.0000000       0.0000000       0.0000000       0.0000000       0.0000000       0.0000000       0.0000000       0.0000000       0.0000000       0.0000000       0.0000000       0.0000000       0.0000000       0.0000000       0.0000000       0.0000000       0.0000000       0.0000000       0.0000000       0.0000000       0.0000000       0.0000000       0.0000000       0.0000000       0.0000000       0.0000000       0.0000000       0.0000000       0.0000000       0.0000000       0.0000000       0.0000000       0.0000000       0.0000000       0.0000000       0.0000000       0.0000000       0.0000000       0.0000000       0.0000000       0.0000000       0.0000000       0.0000000       0.0000000       0.0000000       0.0000000       0.0000000       0.0000000       0.0000000       0.0000000       0.0000000       0.0000000       0.0000000       0.0000000       0.0000000       0.0000000       0.0000000       0.0000000       0.0000000    
[...]
   0.0000000       0.0000000       0.0000000       0.0000000       0.0000000       0.0000000       0.0000000       0.0000000       0.0000000       0.0000000       0.0000000       0.0000000       0.0000000       0.0000000       0.0000000       0.0000000       0.0000000       0.0000000       0.0000000       0.0000000       0.0000000       0.0000000       0.0000000       0.0000000       0.0000000       0.0000000       0.0000000       0.0000000       0.0000000       0.0000000       0.0000000       0.0000000       0.0000000       0.0000000       0.0000000       0.0000000       0.0000000       0.0000000       0.0000000       0.0000000       0.0000000       0.0000000       0.0000000       0.0000000       0.0000000       0.0000000       0.0000000       0.0000000       0.0000000       0.0000000       0.0000000       0.0000000       0.0000000       0.0000000       0.0000000       0.0000000       0.0000000       0.0000000       0.0000000       0.0000000       0.0000000       0.0000000       0.0000000       0.0000000       0.0000000       0.0000000       0.0000000       0.0000000       0.0000000       0.0000000       0.0000000       0.0000000       0.0000000       0.0000000       0.0000000       0.0000000       0.0000000       0.0000000       0.0000000       0.0000000       0.0000000       0.0000000       0.0000000       0.0000000       0.0000000       0.0000000       0.0000000       0.0000000       0.0000000       0.0000000       0.0000000       0.0000000       0.0000000       0.0000000       0.0000000       0.0000000       0.0000000       0.0000000       0.0000000       0.0000000       0.0000000       0.0000000       0.0000000       0.0000000       0.0000000       0.0000000       0.0000000       0.0000000       0.0000000       0.0000000       0.0000000       0.0000000       0.0000000       0.0000000       0.0000000       0.0000000       0.0000000       0.0000000       0.0000000       0.0000000       0.0000000       0.0000000       0.0000000       0.0000000       0.0000000       0.0000000       0.0000000       0.0000000       0.0000000       0.0000000       0.0000000       0.0000000       0.0000000       0.0000000       0.0000000       0.0000000       0.0000000       0.0000000       0.0000000       0.0000000       0.0000000       0.0000000       0.0000000       0.0000000       0.0000000       0.0000000       0.0000000       0.0000000       0.0000000       0.0000000       0.0000000       0.0000000       0.0000000       0.0000000       0.0000000       0.0000000       0.0000000       0.0000000       0.0000000       0.0000000       0.0000000       0.0000000       0.0000000       0.0000000       0.0000000       0.0000000       0.0000000       0.0000000       0.0000000       0.0000000       0.0000000       0.0000000       0.0000000       0.0000000       0.0000000       0.0000000       0.0000000       0.0000000       0.0000000       0.0000000       0.0000000       0.0000000       0.0000000       0.0000000       0.0000000       0.0000000       0.0000000       0.0000000       0.0000000       0.0000000       0.0000000       0.0000000       0.0000000       0.0000000       0.0000000       0.0000000       0.0000000       0.0000000       0.0000000       0.0000000       0.0000000       0.0000000       0.0000000       0.0000000       0.0000000       0.0000000       0.0000000       0.0000000       0.0000000       0.0000000       0.0000000       0.0000000       0.0000000       0.0000000       0.0000000       0.0000000       0.0000000       0.0000000       0.0000000       0.0000000       0.0000000       0.0000000       0.0000000       0.0000000       0.0000000       0.0000000       0.0000000       0.0000000       0.0000000       0.0000000       0.0000000       0.0000000       0.0000000       0.0000000       0.0000000       0.0000000       0.0000000       0.0000000       0.0000000       0.0000000       0.0000000       0.0000000       0.0000000       0.0000000       0.0000000       0.0000000       0.0000000       0.0000000       0.0000000       0.0000000       0.0000000       0.0000000       0.0000000       0.0000000       0.0000000       0.0000000       0.0000000       0.0000000       0.0000000       0.0000000       0.0000000       0.0000000       0.0000000       0.0000000       0.0000000       0.0000000       0.0000000       0.0000000       0.0000000       0.0000000       0.0000000       0.0000000       0.0000000       0.0000000       0.0000000       0.0000000       0.0000000       0.0000000       0.0000000       0.0000000       0.0000000       0.0000000       0.0000000       0.0000000       0.0000000    
   0.0000000       0.0000000       0.0000000       0.0000000       0.0000000       0.0000000       0.0000000       0.0000000       0.0000000       0.0000000       0.0000000       0.0000000       0.0000000       0.0000000       0.0000000       0.0000000       0.0000000       0.0000000       0.0000000       0.0000000       0.0000000       0.0000000       0.0000000       0.0000000       0.0000000       0.0000000       0.0000000       0.0000000       0.0000000       0.0000000       0.0000000       0.0000000       0.0000000       0.0000000       0.0000000       0.0000000       0.0000000       0.0000000       0.0000000       0.0000000       0.0000000       0.0000000       0.0000000       0.0000000       0.0000000       0.0000000       0.0000000       0.0000000       0.0000000       0.0000000       0.0000000       0.0000000       0.0000000       0.0000000       0.0000000       0.0000000       0.0000000       0.0000000       0.0000000       0.0000000       0.0000000       0.0000000       0.0000000       0.0000000       0.0000000       0.0000000       0.0000000       0.0000000       0.0000000       0.0000000       0.0000000       0.0000000       0.0000000       0.0000000       0.0000000       0.0000000       0.0000000       0.0000000       0.0000000       0.0000000       0.0000000       0.0000000       0.0000000       0.0000000       0.0000000       0.0000000       0.0000000       0.0000000       0.0000000       0.0000000       0.0000000       0.0000000       0.0000000       0.0000000       0.0000000       0.0000000       0.0000000       0.0000000       0.0000000       0.0000000       0.0000000       0.0000000       0.0000000       0.0000000       0.0000000       0.0000000       0.0000000       0.0000000       0.0000000       0.0000000       0.0000000       0.0000000       0.0000000       0.0000000       0.0000000       0.0000000       0.0000000       0.0000000       0.0000000       0.0000000       0.0000000       0.0000000       0.0000000       0.0000000       0.0000000       0.0000000       0.0000000       0.0000000       0.0000000       0.0000000       0.0000000       0.0000000       0.0000000       0.0000000       0.0000000       0.0000000       0.0000000       0.0000000       0.0000000       0.0000000       0.0000000       0.0000000       0.0000000       0.0000000       0.0000000       0.0000000       0.0000000       0.0000000       0.0000000       0.0000000       0.0000000       0.0000000       0.0000000       0.0000000       0.0000000       0.0000000       0.0000000       0.0000000       0.0000000       0.0000000       0.0000000       0.0000000       0.0000000       0.0000000       0.0000000       0.0000000       0.0000000       0.0000000       0.0000000       0.0000000       0.0000000       0.0000000       0.0000000       0.0000000       0.0000000       0.0000000       0.0000000       0.0000000       0.0000000       0.0000000       0.0000000       0.0000000       0.0000000       0.0000000       0.0000000       0.0000000       0.0000000       0.0000000       0.0000000       0.0000000       0.0000000       0.0000000       0.0000000       0.0000000       0.0000000       0.0000000       0.0000000       0.0000000       0.0000000       0.0000000       0.0000000       0.0000000       0.0000000       0.0000000       0.0000000       0.0000000       0.0000000       0.0000000       0.0000000       0.0000000       0.0000000       0.0000000       0.0000000       0.0000000       0.0000000       0.0000000       0.0000000       0.0000000       0.0000000       0.0000000       0.0000000       0.0000000       0.0000000       0.0000000       0.0000000       0.0000000       0.0000000       0.0000000       0.0000000       0.0000000       0.0000000       0.0000000       0.0000000       0.0000000       0.0000000       0.0000000       0.0000000       0.0000000       0.0000000       0.0000000       0.0000000       0.0000000       0.0000000       0.0000000       0.0000000       0.0000000       0.0000000       0.0000000       0.0000000       0.0000000       0.0000000       0.0000000       0.0000000       0.0000000       0.0000000       0.0000000       0.0000000       0.0000000       0.0000000       0.0000000       0.0000000       0.0000000       0.0000000       0.0000000       0.0000000       0.0000000       0.0000000       0.0000000       0.0000000       0.0000000       0.0000000       0.0000000       0.0000000       0.0000000       0.0000000       0.0000000       0.0000000       0.0000000       0.0000000       0.0000000       0.0000000       0.0000000       0.0000000       0.0000000       0.0000000    
   0.0000000       0.0000000       0.0000000       0.0000000       0.0000000       0.0000000       0.0000000       0.0000000       0.0000000       0.0000000       0.0000000       0.0000000       0.0000000       0.0000000       0.0000000       0.0000000       0.0000000       0.0000000       0.0000000       0.0000000       0.0000000       0.0000000       0.0000000       0.0000000       0.0000000       0.0000000       0.0000000       0.0000000       0.0000000       0.0000000       0.0000000       0.0000000       0.0000000       0.0000000       0.0000000       0.0000000       0.0000000       0.0000000       0.0000000       0.0000000       0.0000000       0.0000000       0.0000000       0.0000000       0.0000000       0.0000000       0.0000000       0.0000000       0.0000000       0.0000000       0.0000000       0.0000000       0.0000000       0.0000000       0.0000000       0.0000000       0.0000000       0.0000000       0.0000000       0.0000000       0.0000000       0.0000000       0.0000000       0.0000000       0.0000000       0.0000000       0.0000000       0.0000000       0.0000000       0.0000000       0.0000000       0.0000000       0.0000000       0.0000000       0.0000000       0.0000000       0.0000000       0.0000000       0.0000000       0.0000000       0.0000000       0.0000000       0.0000000       0.0000000       0.0000000       0.0000000       0.0000000       0.0000000       0.0000000       0.0000000       0.0000000       0.0000000       0.0000000       0.0000000       0.0000000       0.0000000       0.0000000       0.0000000       0.0000000       0.0000000       0.0000000       0.0000000       0.0000000       0.0000000       0.0000000       0.0000000       0.0000000       0.0000000       0.0000000       0.0000000       0.0000000       0.0000000       0.0000000       0.0000000       0.0000000       0.0000000       0.0000000       0.0000000       0.0000000       0.0000000       0.0000000       0.0000000       0.0000000       0.0000000       0.0000000       0.0000000       0.0000000       0.0000000       0.0000000       0.0000000       0.0000000       0.0000000       0.0000000       0.0000000       0.0000000       0.0000000       0.0000000       0.0000000       0.0000000       0.0000000       0.0000000       0.0000000       0.0000000       0.0000000       0.0000000       0.0000000       0.0000000       0.0000000       0.0000000       0.0000000       0.0000000       0.0000000       0.0000000       0.0000000       0.0000000       0.0000000       0.0000000       0.0000000       0.0000000       0.0000000       0.0000000       0.0000000       0.0000000       0.0000000       0.0000000       0.0000000       0.0000000       0.0000000       0.0000000       0.0000000       0.0000000       0.0000000       0.0000000       0.0000000       0.0000000       0.0000000       0.0000000       0.0000000       0.0000000       0.0000000       0.0000000       0.0000000       0.0000000       0.0000000       0.0000000       0.0000000       0.0000000       0.0000000       0.0000000       0.0000000       0.0000000       0.0000000       0.0000000       0.0000000       0.0000000       0.0000000       0.0000000       0.0000000       0.0000000       0.0000000       0.0000000       0.0000000       0.0000000       0.0000000       0.0000000       0.0000000       0.0000000       0.0000000       0.0000000       0.0000000       0.0000000       0.0000000       0.0000000       0.0000000       0.0000000       0.0000000       0.0000000       0.0000000       0.0000000       0.0000000       0.0000000       0.0000000       0.0000000       0.0000000       0.0000000       0.0000000       0.0000000       0.0000000       0.0000000       0.0000000       0.0000000       0.0000000       0.0000000       0.0000000       0.0000000       0.0000000       0.0000000       0.0000000       0.0000000       0.0000000       0.0000000       0.0000000       0.0000000       0.0000000       0.0000000       0.0000000       0.0000000       0.0000000       0.0000000       0.0000000       0.0000000       0.0000000       0.0000000       0.0000000       0.0000000       0.0000000       0.0000000       0.0000000       0.0000000       0.0000000       0.0000000       0.0000000       0.0000000       0.0000000       0.0000000       0.0000000       0.0000000       0.0000000       0.0000000       0.0000000       0.0000000       0.0000000       0.0000000       0.0000000       0.0000000       0.0000000       0.0000000       0.0000000       0.0000000       0.0000000       0.0000000       0.0000000       0.0000000       0.0000000       0.0000000    
   0.0000000       0.0000000       0.0000000       0.0000000       0.0000000       0.0000000       0.0000000       0.0000000       0.0000000       0.0000000       0.0000000       0.0000000       0.0000000       0.0000000       0.0000000       0.0000000       0.0000000       0.0000000       0.0000000       0.0000000       0.0000000       0.0000000       0.0000000       0.0000000       0.0000000       0.0000000       0.0000000       0.0000000       0.0000000       0.0000000       0.0000000       0.0000000       0.0000000       0.0000000       0.0000000       0.0000000       0.0000000       0.0000000       0.0000000       0.0000000       0.0000000       0.0000000       0.0000000       0.0000000       0.0000000       0.0000000       0.0000000       0.0000000       0.0000000       0.0000000       0.0000000       0.0000000       0.0000000       0.0000000       0.0000000       0.0000000       0.0000000       0.0000000       0.0000000       0.0000000       0.0000000       0.0000000       0.0000000       0.0000000       0.0000000       0.0000000       0.0000000       0.0000000       0.0000000       0.0000000       0.0000000       0.0000000       0.0000000       0.0000000       0.0000000       0.0000000       0.0000000       0.0000000       0.0000000       0.0000000       0.0000000       0.0000000       0.0000000       0.0000000       0.0000000       0.0000000       0.0000000       0.0000000       0.0000000       0.0000000       0.0000000       0.0000000       0.0000000       0.0000000       0.0000000       0.0000000       0.0000000       0.0000000       0.0000000       0.0000000       0.0000000       0.0000000       0.0000000       0.0000000       0.0000000       0.0000000       0.0000000       0.0000000       0.0000000       0.0000000       0.0000000       0.0000000       0.0000000       0.0000000       0.0000000       0.0000000       0.0000000       0.0000000       0.0000000       0.0000000       0.0000000       0.0000000       0.0000000       0.0000000       0.0000000       0.0000000       0.0000000       0.0000000       0.0000000       0.0000000       0.0000000       0.0000000       0.0000000       0.0000000       0.0000000       0.0000000       0.0000000       0.0000000       0.0000000       0.0000000       0.0000000       0.0000000       0.0000000       0.0000000       0.0000000       0.0000000       0.0000000       0.0000000       0.0000000       0.0000000       0.0000000       0.0000000       0.0000000       0.0000000       0.0000000       0.0000000       0.0000000       0.0000000       0.0000000       0.0000000       0.0000000       0.0000000       0.0000000       0.0000000       0.0000000       0.0000000       0.0000000       0.0000000       0.0000000       0.0000000       0.0000000       0.0000000       0.0000000       0.0000000       0.0000000       0.0000000       0.0000000       0.0000000       0.0000000       0.0000000       0.0000000       0.0000000       0.0000000       0.0000000       0.0000000       0.0000000       0.0000000       0.0000000       0.0000000       0.0000000       0.0000000       0.0000000       0.0000000       0.0000000       0.0000000       0.0000000       0.0000000       0.0000000       0.0000000       0.0000000       0.0000000       0.0000000       0.0000000       0.0000000       0.0000000       0.0000000       0.0000000       0.0000000       0.0000000       0.0000000       0.0000000       0.0000000       0.0000000       0.0000000       0.0000000       0.0000000       0.0000000       0.0000000       0.0000000       0.0000000       0.0000000       0.0000000       0.0000000       0.0000000       0.0000000       0.0000000       0.0000000       0.0000000       0.0000000       0.0000000       0.0000000       0.0000000       0.0000000       0.0000000       0.0000000       0.0000000       0.0000000       0.0000000       0.0000000       0.0000000       0.0000000       0.0000000       0.0000000       0.0000000       0.0000000       0.0000000       0.0000000       0.0000000       0.0000000       0.0000000       0.0000000       0.0000000       0.0000000       0.0000000       0.0000000       0.0000000       0.0000000       0.0000000       0.0000000       0.0000000       0.0000000       0.0000000       0.0000000       0.0000000       0.0000000       0.0000000       0.0000000       0.0000000       0.0000000       0.0000000       0.0000000       0.0000000       0.0000000       0.0000000       0.0000000       0.0000000       0.0000000       0.0000000       0.0000000       0.0000000       0.0000000       0.0000000       0.0000000       0.0000000       0.0000000    
