    20110522       60000
 FLEXPWRF V5.0
        3600        3600        1200           0
  -46.667702       42.920399             168         168  0.67656374      0.16769406    
          18   15.000000       50.000000       100.00000       200.00000       300.00000       400.00000       500.00000       1000.0000       2000.0000       3000.0000       4000.0000       5000.0000       6000.0000       7000.0000       8000.0000       9000.0000       10000.000       15000.000    
    20110522       60000
           3           2           1
           1
 WD_I-131  
           1
 DD_I-131  
          18
 I-131     
           1
           0       21600           1
  -17.360001       64.410004      -17.299999       64.430000       10.000000       30.000000    
      100000           1
 FKS_RELEASE_SCENARIO1                        
   1.0000000    
   1.0000000    
   1.0000000    
           0           1           0
           1   999999999
   0.0000000       0.0000000       0.0000000       0.0000000       0.0000000       0.0000000       0.0000000       0.0000000       0.0000000       0.0000000       0.0000000       0.0000000       0.0000000       0.0000000       0.0000000       0.0000000       0.0000000       0.0000000       0.0000000       0.0000000       0.0000000       0.0000000       0.0000000       0.0000000       0.0000000       0.0000000       0.0000000       0.0000000       0.0000000       0.0000000       0.0000000       0.0000000       0.0000000       0.0000000       0.0000000       0.0000000       0.0000000       0.0000000       0.0000000       0.0000000       0.0000000       0.0000000       0.0000000       0.0000000       0.0000000       0.0000000       0.0000000      2.52353982E-03  1.32070025E-02  1.80118680E-02  1.15145906E-03  3.05149388E-06   0.0000000       0.0000000      6.08797278E-03  3.02969050E-02  3.69984508E-02  2.79294653E-03   0.0000000      1.24560656E-05  4.41909542E-05  2.23594508E-03  8.25004932E-03  8.69334792E-04  8.00064026E-06   0.0000000       0.0000000       0.0000000       0.0000000       0.0000000      1.03168923E-03  5.74771315E-03  2.27530170E-02  7.98454359E-02  1.02242948E-02   0.0000000      1.74933206E-03  8.97163711E-03  1.28858560E-03   0.0000000       0.0000000      0.47655624       4.8853021       16.763479       29.646217       45.174603       56.736153       38.142143       9.6462812      0.80403435       0.0000000      2.79428926E-03  0.23886508       2.7618575       11.562829       28.717155       64.309151       136.66539       220.40704       265.77066       271.52963       272.05383       276.80798       295.63370       290.42911       223.94647       164.39592       146.91873       144.01947       135.00684       106.85105       72.305237       45.524368       22.946873       10.130142       9.9893665       8.6849642       5.0130072       2.0146310      0.35231099      1.56731438E-02  5.80295036E-03  2.69636388E-07   0.0000000       0.0000000       0.0000000      8.46173167E-02   3.8617389       51.105068       144.26622       233.86491       287.99399       321.16522       354.81494       376.18289       320.43661       168.06810       46.094074       5.4970245       11.387665       55.225712       93.291512       75.996651       38.132347       63.499470       132.68597       150.56386       108.55851       59.623989       38.527645       42.729984       45.146366       33.286900       16.098356       6.2364426       5.0761170       3.5014441      0.79283357      5.16782738E-02  0.54458749       1.8378434       5.0421228       11.811752       20.868755       36.617157       65.335709       93.928543       110.45646    
   0.0000000       0.0000000       0.0000000       0.0000000       0.0000000       0.0000000       0.0000000       0.0000000       0.0000000       0.0000000       0.0000000       0.0000000       0.0000000       0.0000000       0.0000000       0.0000000       0.0000000       0.0000000       0.0000000       0.0000000       0.0000000       0.0000000       0.0000000       0.0000000       0.0000000       0.0000000       0.0000000       0.0000000       0.0000000       0.0000000       0.0000000       0.0000000       0.0000000       0.0000000       0.0000000       0.0000000       0.0000000       0.0000000       0.0000000       0.0000000       0.0000000       0.0000000       0.0000000       0.0000000       0.0000000       0.0000000       0.0000000       0.0000000      3.16273217E-05  1.05632702E-04  5.35465078E-05  3.12468023E-06   0.0000000       0.0000000      1.09503882E-04  3.48595961E-04  2.66417501E-05   0.0000000       0.0000000      1.27548101E-05  4.52508211E-05  4.05603214E-06   0.0000000       0.0000000       0.0000000       0.0000000       0.0000000       0.0000000       0.0000000       0.0000000       0.0000000       0.0000000      6.65503729E-04  3.10927001E-03  4.01467289E-04   0.0000000      1.79128745E-03  9.18681081E-03  1.31949154E-03   0.0000000       0.0000000      5.94161963E-03  3.39171775E-02  5.54318726E-03   0.0000000       1.1848013       8.7248621       9.9903793       3.9048409       1.2749960       7.4311447       13.569015       7.3332610       12.656104       61.535248       145.25589       247.45215       364.77798       449.56564       475.11832       481.05878       475.36942       450.31897       433.98611       405.62515       340.24973       284.60132       245.58643       209.71014       188.63554       165.43781       133.71185       97.211563       49.044930       12.144368       2.1915517      0.39963734      1.99852069E-03  2.48927216E-04  5.05161798E-03  1.75700020E-02  5.95181808E-03  2.76103322E-07   0.0000000      1.83618283E-07  3.97187796E-06  7.68941641E-02   3.3586822       42.371399       119.83982       199.41939       261.89288       310.36182       342.03607       357.64340       332.19781       215.40935       69.246948       7.1437778       5.3955579       29.585907       58.749146       58.777245       29.460476       30.018229       73.943230       97.112450       82.175880       60.815178       59.485909       90.188339       119.86804       109.72944       67.349815       23.196968       2.7365096      9.99178067E-02  7.78619871E-02  0.17770913      0.50030702      0.38343430      0.22482687       1.1391999       3.2405932       11.415883       33.973167       61.056091       76.784355    
   0.0000000       0.0000000       0.0000000       0.0000000       0.0000000       0.0000000       0.0000000       0.0000000       0.0000000       0.0000000       0.0000000       0.0000000       0.0000000       0.0000000       0.0000000       0.0000000       0.0000000       0.0000000       0.0000000       0.0000000       0.0000000       0.0000000       0.0000000       0.0000000       0.0000000       0.0000000       0.0000000       0.0000000       0.0000000       0.0000000       0.0000000       0.0000000       0.0000000       0.0000000       0.0000000       0.0000000       0.0000000       0.0000000       0.0000000       0.0000000       0.0000000       0.0000000       0.0000000       0.0000000       0.0000000       0.0000000       0.0000000       0.0000000       0.0000000       0.0000000       0.0000000       0.0000000       0.0000000       0.0000000       0.0000000       0.0000000       0.0000000       0.0000000       0.0000000       0.0000000       0.0000000       0.0000000       0.0000000       0.0000000       0.0000000       0.0000000       0.0000000       0.0000000       0.0000000       0.0000000       0.0000000       0.0000000       0.0000000       0.0000000       0.0000000       0.0000000       0.0000000       0.0000000       0.0000000       0.0000000       0.0000000      6.23008469E-03  3.55638489E-02  5.81230409E-03  1.95518322E-03  1.19732535E-02  2.09913100E-03  8.82783998E-03  5.83032817E-02   2.8967078       26.098793       49.226650       27.015898       19.359411       97.363258       232.54973       360.84512       452.90909       476.77625       450.69714       447.43475       456.53561       447.76343       441.68680       423.99890       362.85672       290.32831       234.65276       189.85518       168.48555       163.70294       151.38654       116.91582       58.345810       12.583675      0.74454242      2.45517399E-02  1.36931054E-02  5.32646012E-03  4.42733988E-03  1.66265061E-03  3.52793613E-05   0.0000000      2.17415868E-06  4.51562228E-05  5.39877277E-04  1.26890652E-02  0.59553373       15.815486       56.845242       113.63606       184.66103       259.76489       311.63385       343.22064       343.38000       249.99318       94.503014       12.892422      0.41210181       5.5758066       16.131321       22.186640       13.186529       9.8285570       24.869169       34.274353       38.621349       57.044804       94.907684       160.14641       218.26736       212.30461       140.57437       52.409531       7.0848827       0.0000000      2.99632957E-04  0.17319709      0.57239187      0.50091261      0.12118308       0.0000000       0.0000000       1.4569802       12.406542       37.581821       59.676067    
   0.0000000       0.0000000       0.0000000       0.0000000       0.0000000       0.0000000       0.0000000       0.0000000       0.0000000       0.0000000       0.0000000       0.0000000       0.0000000       0.0000000       0.0000000       0.0000000       0.0000000       0.0000000       0.0000000       0.0000000       0.0000000       0.0000000       0.0000000       0.0000000       0.0000000       0.0000000       0.0000000       0.0000000       0.0000000       0.0000000       0.0000000       0.0000000       0.0000000       0.0000000       0.0000000       0.0000000       0.0000000       0.0000000       0.0000000       0.0000000       0.0000000       0.0000000       0.0000000       0.0000000       0.0000000       0.0000000       0.0000000       0.0000000       0.0000000       0.0000000       0.0000000       0.0000000       0.0000000       0.0000000       0.0000000       0.0000000       0.0000000       0.0000000       0.0000000       0.0000000       0.0000000       0.0000000       0.0000000       0.0000000       0.0000000       0.0000000       0.0000000       0.0000000       0.0000000       0.0000000       0.0000000       0.0000000       0.0000000       0.0000000       0.0000000       0.0000000       0.0000000       0.0000000       0.0000000       0.0000000       0.0000000       0.0000000       0.0000000       0.0000000      2.09931866E-03  1.28559154E-02  2.25387816E-03   0.0000000       0.0000000       2.9460056       27.005972       53.428215       31.769531       11.929375       54.891953       137.88930       211.45070       250.11700       240.62383       206.82716       203.42065       227.14629       256.49292       295.45905       315.49814       278.51047       214.68164       170.28670       141.97087       130.48633       140.30241       143.49559       112.40704       55.616081       13.200252       1.1168777      9.25474316E-02  4.00149859E-02  5.46894362E-03  1.74165040E-03  1.96505599E-02  7.20785139E-03   0.0000000      2.33443643E-06  7.62527401E-04  1.72735229E-02  5.03563546E-02  0.11307022      0.91630501       9.0534372       28.540756       76.422180       159.60785       248.68182       314.74463       314.23758       212.81139       75.406517       9.7991171      1.14651723E-03  5.46094514E-02  5.79495504E-02   1.6021962       1.8072728       1.5035000       2.9492295       3.1772547       14.006077       62.724106       153.67201       259.66956       330.69397       320.46149       222.45494       95.937325       19.847738      0.82318139      1.54528040E-02  5.73030524E-02  0.15838978      0.15537506      5.56136221E-02  1.01652332E-02  1.73391507E-03   0.0000000       5.0038867       31.207682       65.723869    
   0.0000000       0.0000000       0.0000000       0.0000000       0.0000000       0.0000000       0.0000000       0.0000000       0.0000000       0.0000000       0.0000000       0.0000000       0.0000000       0.0000000       0.0000000       0.0000000       0.0000000       0.0000000       0.0000000       0.0000000       0.0000000       0.0000000       0.0000000       0.0000000       0.0000000       0.0000000       0.0000000       0.0000000       0.0000000       0.0000000       0.0000000       0.0000000       0.0000000       0.0000000       0.0000000       0.0000000       0.0000000       0.0000000       0.0000000       0.0000000       0.0000000       0.0000000       0.0000000       0.0000000       0.0000000       0.0000000       0.0000000       0.0000000       0.0000000       0.0000000       0.0000000       0.0000000       0.0000000       0.0000000       0.0000000       0.0000000       0.0000000       0.0000000       0.0000000       0.0000000       0.0000000       0.0000000       0.0000000       0.0000000       0.0000000       0.0000000       0.0000000       0.0000000       0.0000000       0.0000000       0.0000000       0.0000000       0.0000000       0.0000000       0.0000000       0.0000000       0.0000000       0.0000000       0.0000000       0.0000000       0.0000000       0.0000000       0.0000000       0.0000000       0.0000000       0.0000000       0.0000000      5.42779546E-03  5.25493100E-02  0.97796971       8.1025753       17.557644       13.282970       6.5954418       10.608170       24.084761       45.677483       77.015015       107.33554       126.47923       134.95918       152.47662       198.45717       255.00031       281.21014       251.21516       196.79617       159.20044       134.49211       121.67592       126.62924       131.72867       113.37425       72.723671       33.918892       11.149168       1.9950563      0.11105270      4.19860997E-04  8.18412285E-03  2.66384259E-02  7.06609413E-02  0.25940943      0.12735206      1.47107029E-02  1.85373127E-02  4.56217751E-02  9.59834382E-02  6.82090521E-02  1.48747694E-02  0.39831188       12.832304       60.172321       151.34291       243.99005       254.19531       173.05217       82.350754       29.582880       5.7951875      6.00439534E-02  3.32106389E-02   0.0000000       0.0000000       0.0000000      2.30837031E-03  0.26833075       8.2704887       55.477058       163.11226       297.95428       396.06900       401.13855       301.13272       161.92273       55.178169       8.2369165      1.73470788E-02  0.26868963      0.29750067      7.52916336E-02  1.04048233E-02  1.25173721E-02  3.09817074E-03   0.0000000       2.0271785       22.931669       66.260719    
   0.0000000       0.0000000       0.0000000       0.0000000       0.0000000       0.0000000       0.0000000       0.0000000       0.0000000       0.0000000       0.0000000       0.0000000       0.0000000       0.0000000       0.0000000       0.0000000       0.0000000       0.0000000       0.0000000       0.0000000       0.0000000       0.0000000       0.0000000       0.0000000       0.0000000       0.0000000       0.0000000       0.0000000       0.0000000       0.0000000       0.0000000       0.0000000       0.0000000       0.0000000       0.0000000       0.0000000       0.0000000       0.0000000       0.0000000       0.0000000       0.0000000       0.0000000       0.0000000       0.0000000       0.0000000       0.0000000       0.0000000       0.0000000       0.0000000       0.0000000       0.0000000       0.0000000       0.0000000       0.0000000       0.0000000       0.0000000       0.0000000       0.0000000       0.0000000       0.0000000       0.0000000       0.0000000       0.0000000       0.0000000       0.0000000       0.0000000       0.0000000       0.0000000       0.0000000       0.0000000       0.0000000       0.0000000       0.0000000       0.0000000       0.0000000       0.0000000       0.0000000       0.0000000       0.0000000       0.0000000       0.0000000       0.0000000       0.0000000       0.0000000       0.0000000       0.0000000       0.0000000      6.11149101E-03  6.03601933E-02  0.14356838      2.86813378E-02  0.36781108       4.1763163       13.715215       22.656237       49.195217       106.35457       184.97472       269.84525       339.43198       364.62955       370.01425       396.26898       419.26010       405.94055       350.00937       279.89230       226.65501       188.22318       157.09286       130.87816       115.19424       108.76331       95.664429       67.172050       31.472649       7.1588168      0.51678699      4.35513793E-04  7.20327580E-03  7.62357637E-02   1.5838666       5.6626577       6.2820067       2.5024261      0.32101348      3.18936370E-02  6.80902079E-02  8.30442011E-02  3.03185843E-02  0.14907548       1.6333504       16.025892       71.138298       154.68091       205.98627       211.43828       186.52177       113.75762       30.896887       1.2879275       0.0000000       0.0000000       0.0000000       0.0000000      2.59913760E-03  0.23156513       3.2090960       23.878952       88.292252       206.76392       339.23282       395.59808       329.77530       202.66061       85.653130       17.643167      3.47082168E-02   1.1340207       1.9739799      0.89219338       0.0000000      1.50939531E-03  1.34181278E-03   0.0000000      1.32617150E-02   8.9121008       50.802738    
   0.0000000       0.0000000       0.0000000       0.0000000       0.0000000       0.0000000       0.0000000       0.0000000       0.0000000       0.0000000       0.0000000       0.0000000       0.0000000       0.0000000       0.0000000       0.0000000       0.0000000       0.0000000       0.0000000       0.0000000       0.0000000       0.0000000       0.0000000       0.0000000       0.0000000       0.0000000       0.0000000       0.0000000       0.0000000       0.0000000       0.0000000       0.0000000       0.0000000       0.0000000       0.0000000       0.0000000       0.0000000       0.0000000       0.0000000       0.0000000       0.0000000       0.0000000       0.0000000       0.0000000       0.0000000       0.0000000       0.0000000       0.0000000       0.0000000       0.0000000       0.0000000       0.0000000       0.0000000       0.0000000       0.0000000       0.0000000       0.0000000       0.0000000       0.0000000       0.0000000       0.0000000       0.0000000       0.0000000       0.0000000       0.0000000       0.0000000       0.0000000       0.0000000       0.0000000       0.0000000       0.0000000       0.0000000       0.0000000       0.0000000       0.0000000       0.0000000       0.0000000       0.0000000       0.0000000       0.0000000       0.0000000       0.0000000       0.0000000       0.0000000       0.0000000       0.0000000       0.0000000       0.0000000      1.37409009E-03  9.77495499E-03  4.95977979E-03  0.37283260       4.1150665       13.468737       30.132763       90.029961       203.51123       339.43405       478.14160       581.07361       610.07343       598.80731       593.92944       582.37665       536.49371       461.58154       381.28278       318.75497       275.75443       225.04201       158.90825       105.16322       85.281212       88.591515       79.532097       44.931763       12.278521       1.2041478       0.0000000       0.0000000      0.26422504       5.6434312       19.683392       24.940737       13.249464       2.4568393      3.76566388E-02  0.22309047      0.19215444      4.99838479E-02  0.16693646       1.5321178       10.907850       37.198772       86.956696       159.44966       237.38634       263.33105       180.29807       58.296154       11.999125       10.469626       6.6265359       6.0763211       7.8214798       5.4308758       1.7603799      0.40919140       2.0889308       17.690048       75.254028       187.90656       291.73883       291.78339       191.72427       78.839729       15.614002       2.0058556       7.0685101       11.540942       8.5422411       2.3819070      8.20495933E-02   0.0000000       0.0000000       0.0000000       1.3271347       34.021931    
   0.0000000       0.0000000       0.0000000       0.0000000       0.0000000       0.0000000       0.0000000       0.0000000       0.0000000       0.0000000       0.0000000       0.0000000       0.0000000       0.0000000       0.0000000       0.0000000       0.0000000       0.0000000       0.0000000       0.0000000       0.0000000       0.0000000       0.0000000       0.0000000       0.0000000       0.0000000       0.0000000       0.0000000       0.0000000       0.0000000       0.0000000       0.0000000       0.0000000       0.0000000       0.0000000       0.0000000       0.0000000       0.0000000       0.0000000       0.0000000       0.0000000       0.0000000       0.0000000       0.0000000       0.0000000       0.0000000       0.0000000       0.0000000       0.0000000       0.0000000       0.0000000       0.0000000       0.0000000       0.0000000       0.0000000       0.0000000       0.0000000       0.0000000       0.0000000       0.0000000       0.0000000       0.0000000       0.0000000       0.0000000       0.0000000       0.0000000       0.0000000       0.0000000       0.0000000       0.0000000       0.0000000       0.0000000       0.0000000       0.0000000       0.0000000       0.0000000       0.0000000       0.0000000       0.0000000       0.0000000       0.0000000       0.0000000       0.0000000       0.0000000       0.0000000       0.0000000       0.0000000       0.0000000       0.0000000       0.0000000      7.77200703E-03  0.19621775       1.3993182       3.6127717       11.034648       54.778465       165.89847       333.03101       527.06024       671.58093       709.47388       682.51355       654.78070       629.25519       576.41980       501.97678       424.67062       366.77100       330.95627       272.20822       182.76598       100.19769       57.997307       60.915474       66.544846       44.358345       14.625378       1.8335391       0.0000000       0.0000000      0.41139233       8.7882662       30.861933       42.729866       27.117899       6.5702653      0.31153280      0.24888982      0.27141523      0.10858088      3.17421071E-02  0.68697953       7.9890013       21.341644       42.820286       90.460793       156.88686       191.77031       146.86229       84.823708       83.246811       80.032326       49.581814       43.738827       47.337708       31.140957       9.5658636      0.81646216       0.0000000      8.91021341E-02   9.6833324       58.046398       147.58493       199.67317       152.86874       60.322517       12.011782       16.939085       31.688019       38.351849       31.025963       13.700763       3.4091790       1.8991470       1.3635647      0.37496492       0.0000000       19.563704    
   0.0000000       0.0000000       0.0000000       0.0000000       0.0000000       0.0000000       0.0000000       0.0000000       0.0000000       0.0000000       0.0000000       0.0000000       0.0000000       0.0000000       0.0000000       0.0000000       0.0000000       0.0000000       0.0000000       0.0000000       0.0000000       0.0000000       0.0000000       0.0000000       0.0000000       0.0000000       0.0000000       0.0000000       0.0000000       0.0000000       0.0000000       0.0000000       0.0000000       0.0000000       0.0000000       0.0000000       0.0000000       0.0000000       0.0000000       0.0000000       0.0000000       0.0000000       0.0000000       0.0000000       0.0000000       0.0000000       0.0000000       0.0000000       0.0000000       0.0000000       0.0000000       0.0000000       0.0000000       0.0000000       0.0000000       0.0000000       0.0000000       0.0000000       0.0000000       0.0000000       0.0000000       0.0000000       0.0000000       0.0000000       0.0000000       0.0000000       0.0000000       0.0000000       0.0000000       0.0000000       0.0000000       0.0000000       0.0000000       0.0000000       0.0000000       0.0000000       0.0000000       0.0000000       0.0000000       0.0000000       0.0000000       0.0000000       0.0000000       0.0000000       0.0000000       0.0000000       0.0000000       0.0000000       0.0000000       0.0000000      9.84295737E-03  7.05442056E-02  1.41709130E-02  1.02905405E-03  0.87680441       15.124570       88.844467       224.48830       395.66711       565.48901       668.47485       669.52594       616.96173       566.55078       518.68195       462.15573       396.70221       348.22601       323.90570       269.15717       173.67564       84.990547       40.714500       39.633083       47.872387       39.228046       16.691175       2.6603580      5.54635702E-03   0.0000000      0.34101862       7.2931480       25.833017       37.506248       26.066929       7.3614926      0.57638633      8.99347663E-02  0.15575930      0.13232300      4.38156016E-02  0.13520524       2.7400393       7.0522299       14.898578       32.805637       64.352295       110.58717       134.78191       156.54796       206.91808       195.01607       129.54332       103.29644       90.963326       54.084023       15.455088      0.99531102      1.07007698E-04  1.11215310E-02  0.17242214       7.5583353       40.348110       89.073746       99.642212       50.423054       17.660919       42.739048       68.899971       68.331284       53.408401       29.963593       11.946838       8.2522955       7.7020464       3.3102973      0.31870002       6.0452905    
   0.0000000       0.0000000       0.0000000       0.0000000       0.0000000       0.0000000       0.0000000       0.0000000       0.0000000       0.0000000       0.0000000       0.0000000       0.0000000       0.0000000       0.0000000       0.0000000       0.0000000       0.0000000       0.0000000       0.0000000       0.0000000       0.0000000       0.0000000       0.0000000       0.0000000       0.0000000       0.0000000       0.0000000       0.0000000       0.0000000       0.0000000       0.0000000       0.0000000       0.0000000       0.0000000       0.0000000       0.0000000       0.0000000       0.0000000       0.0000000       0.0000000       0.0000000       0.0000000       0.0000000       0.0000000       0.0000000       0.0000000       0.0000000       0.0000000       0.0000000       0.0000000       0.0000000       0.0000000       0.0000000       0.0000000       0.0000000       0.0000000       0.0000000       0.0000000       0.0000000       0.0000000       0.0000000       0.0000000       0.0000000       0.0000000       0.0000000       0.0000000       0.0000000       0.0000000       0.0000000       0.0000000       0.0000000       0.0000000       0.0000000       0.0000000       0.0000000       0.0000000       0.0000000       0.0000000       0.0000000       0.0000000       0.0000000       0.0000000       0.0000000       0.0000000       0.0000000       0.0000000       0.0000000       0.0000000       0.0000000      5.55227452E-04  3.97930015E-03  7.92838691E-04  7.36220784E-07  0.22549425       5.7562809       42.004990       100.44618       173.59187       300.04196       452.19937       513.64215       457.25128       378.76389       337.15741       315.32883       283.85104       258.29446       257.20596       223.19884       136.37582       59.300110       30.007399       29.721106       36.342869       37.651463       22.161894       5.3428836      0.33929852      1.49034401E-02  0.42725626       3.8244526       11.189005       15.583550       10.966147       3.3163815      0.44040844      5.98474294E-02  0.20278348      0.55975217      0.34378287      0.29104730       1.5366904       1.7634025       7.1174707       27.418537       71.750519       144.12547       194.12622       216.19002       246.82919       232.83374       171.73671       121.57356       81.054337       45.039417       26.175512       19.074558       8.1722078      0.94234723      0.10206731      8.54052976E-02   2.2663879       31.072119       75.986748       61.618305       28.414537       56.725071       86.779663       72.674873       52.837776       37.274464       18.912592       12.697224       14.594954       8.4733057       1.3864427       1.9374669    
   0.0000000       0.0000000       0.0000000       0.0000000       0.0000000       0.0000000       0.0000000       0.0000000       0.0000000       0.0000000       0.0000000       0.0000000       0.0000000       0.0000000       0.0000000       0.0000000       0.0000000       0.0000000       0.0000000       0.0000000       0.0000000       0.0000000       0.0000000       0.0000000       0.0000000       0.0000000       0.0000000       0.0000000       0.0000000       0.0000000       0.0000000       0.0000000       0.0000000       0.0000000       0.0000000       0.0000000       0.0000000       0.0000000       0.0000000       0.0000000       0.0000000       0.0000000       0.0000000       0.0000000       0.0000000       0.0000000       0.0000000       0.0000000       0.0000000       0.0000000       0.0000000       0.0000000       0.0000000       0.0000000       0.0000000       0.0000000       0.0000000       0.0000000       0.0000000       0.0000000       0.0000000       0.0000000       0.0000000       0.0000000       0.0000000       0.0000000       0.0000000       0.0000000       0.0000000       0.0000000       0.0000000       0.0000000       0.0000000       0.0000000       0.0000000       0.0000000       0.0000000       0.0000000       0.0000000       0.0000000       0.0000000       0.0000000       0.0000000       0.0000000       0.0000000       0.0000000       0.0000000       0.0000000       0.0000000       0.0000000      1.50981055E-06  1.08207732E-05  9.16021527E-04  9.58691910E-03  0.17937118       2.3894565       11.457547       20.911419       32.669975       75.604698       172.44304       241.41487       212.31650       145.63524       116.46434       121.41066       123.97911       126.37572       151.88493       156.45071       105.59036       49.464390       33.374962       43.143520       51.279751       52.236004       43.367260       25.684631       10.656652       1.9537501      0.60377908       1.9482400       2.2109227       2.1141706       1.3434451       1.2649125       1.4303143      0.45785865      0.25387341       1.4794885       1.1005839      0.99266022       3.9808006       7.8112540       18.931179       55.506336       122.76127       189.23398       207.51486       188.49553       175.59665       162.00203       133.79604       100.46070       70.711990       63.755074       84.001053       83.664452       41.035278       7.2299423      0.11819135      8.09407383E-02  0.21004684       30.839296       104.69193       107.73148       51.048233       55.087914       73.071930       53.641884       43.965229       42.844952       23.294119       8.5717316       11.339417       9.0236912       1.8272429       10.635699    
   0.0000000       0.0000000       0.0000000       0.0000000       0.0000000       0.0000000       0.0000000       0.0000000       0.0000000       0.0000000       0.0000000       0.0000000       0.0000000       0.0000000       0.0000000       0.0000000       0.0000000       0.0000000       0.0000000       0.0000000       0.0000000       0.0000000       0.0000000       0.0000000       0.0000000       0.0000000       0.0000000       0.0000000       0.0000000       0.0000000       0.0000000       0.0000000       0.0000000       0.0000000       0.0000000       0.0000000       0.0000000       0.0000000       0.0000000       0.0000000       0.0000000       0.0000000       0.0000000       0.0000000       0.0000000       0.0000000       0.0000000       0.0000000       0.0000000       0.0000000       0.0000000       0.0000000       0.0000000       0.0000000       0.0000000       0.0000000       0.0000000       0.0000000       0.0000000       0.0000000       0.0000000       0.0000000       0.0000000       0.0000000       0.0000000       0.0000000       0.0000000       0.0000000       0.0000000       0.0000000       0.0000000       0.0000000       0.0000000       0.0000000       0.0000000       0.0000000       0.0000000       0.0000000       0.0000000       0.0000000       0.0000000       0.0000000       0.0000000       0.0000000       0.0000000       0.0000000       0.0000000       0.0000000       0.0000000       0.0000000      1.50942947E-09  1.08180425E-08  1.20830245E-03  1.43670402E-02  4.27590609E-02  1.53826792E-02  3.22496854E-02  0.35486323       2.6829739       3.5519183       24.859732       49.099976       42.843231       18.723787       8.8913860       15.215629       22.687490       36.726395       75.589828       114.89496       116.88199       87.866814       78.110092       101.39995       111.73094       98.979927       90.900673       81.249756       57.717209       27.052206       7.4836283       2.7036448       1.3834536      0.84199744      0.66897124       4.3812943       5.5989141       1.8422546      0.30833974       1.2056175       1.7321769       3.7552898       14.851681       28.056793       46.650986       82.169991       137.04156       180.16031       179.68005       150.30405       113.15123       79.673401       72.533096       96.115486       119.39427       140.49825       171.46066       163.73756       93.594734       25.813005       2.0956743      2.28916979E-04  0.19936222       29.846731       112.12993       137.33089       80.362907       49.613724       44.688004       36.078392       50.351894       65.080429       41.486092       10.688590       4.2440672       3.9263079      0.74263722       18.643883    
   0.0000000       0.0000000       0.0000000       0.0000000       0.0000000       0.0000000       0.0000000       0.0000000       0.0000000       0.0000000       0.0000000       0.0000000       0.0000000       0.0000000       0.0000000       0.0000000       0.0000000       0.0000000       0.0000000       0.0000000       0.0000000       0.0000000       0.0000000       0.0000000       0.0000000       0.0000000       0.0000000       0.0000000       0.0000000       0.0000000       0.0000000       0.0000000       0.0000000       0.0000000       0.0000000       0.0000000       0.0000000       0.0000000       0.0000000       0.0000000       0.0000000       0.0000000       0.0000000       0.0000000       0.0000000       0.0000000       0.0000000       0.0000000       0.0000000       0.0000000       0.0000000       0.0000000       0.0000000       0.0000000       0.0000000       0.0000000       0.0000000       0.0000000       0.0000000       0.0000000       0.0000000       0.0000000       0.0000000       0.0000000       0.0000000       0.0000000       0.0000000       0.0000000       0.0000000       0.0000000       0.0000000       0.0000000       0.0000000       0.0000000       0.0000000       0.0000000       0.0000000       0.0000000       0.0000000       0.0000000       0.0000000       0.0000000       0.0000000       0.0000000       0.0000000       0.0000000       0.0000000       0.0000000       0.0000000       0.0000000       0.0000000       0.0000000      4.37542149E-05  2.68581440E-03  1.83174908E-02  4.90944088E-03  8.12998973E-03  2.97037954E-03  7.74093717E-02   1.0314548       5.3603983       15.419300       29.621256       33.763206       22.696379       8.9885349       1.9220768       8.9570370       46.083378       106.08261       155.62315       164.30957       167.29262       196.97058       204.36224       172.98740       158.38951       164.38184       151.12907       104.17461       52.893242       29.496674       19.938192       11.005040       13.287263       27.995707       31.369574       23.892302       17.138411       11.082093       6.7311645       7.3665175       22.283997       39.764732       65.234970       96.274330       126.80390       152.38734       155.51817       138.87259       102.46384       53.599129       44.555115       95.936142       157.40848       196.82397       215.49274       198.07808       133.20197       53.294094       8.9744291      3.44438851E-02   2.3419073       19.077410       75.577393       130.39174       117.73345       62.708832       28.004936       28.775927       63.347954       98.777519       83.226349       36.711082       7.8179517      0.50918204      2.85259262E-03   12.866447    
   0.0000000       0.0000000       0.0000000       0.0000000       0.0000000       0.0000000       0.0000000       0.0000000       0.0000000       0.0000000       0.0000000       0.0000000       0.0000000       0.0000000       0.0000000       0.0000000       0.0000000       0.0000000       0.0000000       0.0000000       0.0000000       0.0000000       0.0000000       0.0000000       0.0000000       0.0000000       0.0000000       0.0000000       0.0000000       0.0000000       0.0000000       0.0000000       0.0000000       0.0000000       0.0000000       0.0000000       0.0000000       0.0000000       0.0000000       0.0000000       0.0000000       0.0000000       0.0000000       0.0000000       0.0000000       0.0000000       0.0000000       0.0000000       0.0000000       0.0000000       0.0000000       0.0000000       0.0000000       0.0000000       0.0000000       0.0000000       0.0000000       0.0000000       0.0000000       0.0000000       0.0000000       0.0000000       0.0000000       0.0000000       0.0000000       0.0000000       0.0000000       0.0000000       0.0000000       0.0000000       0.0000000       0.0000000       0.0000000       0.0000000       0.0000000       0.0000000       0.0000000       0.0000000       0.0000000       0.0000000       0.0000000       0.0000000       0.0000000       0.0000000       0.0000000       0.0000000       0.0000000       0.0000000       0.0000000       0.0000000       0.0000000       0.0000000      1.91032754E-07  1.28543616E-05  8.87178976E-05  1.36368396E-03  1.09287379E-02  2.45318469E-03  0.25167763       4.8090839       30.902500       81.615761       140.89120       173.36795       149.79431       100.34152       77.476120       65.925163       72.683037       136.63721       215.92188       258.07715       278.38358       296.37656       289.68881       254.82446       240.89635       254.16179       249.45970       208.46101       152.13423       113.03282       88.860840       68.353378       74.670959       97.308075       97.649345       90.767204       87.312927       78.709404       60.848694       38.578838       29.558432       33.836304       60.076653       95.254150       116.35216       131.84395       139.46092       134.39418       114.48917       78.030106       55.558334       73.628670       125.03776       182.69009       206.82213       191.41266       146.25475       75.877434       17.757042       1.3338132       18.660229       45.516140       87.733368       164.58841       194.48466       116.25301       32.855568       24.889807       69.910767       116.60119       113.23732       61.840042       15.077467      9.62644070E-02   0.0000000       3.0282440    
   0.0000000       0.0000000       0.0000000       0.0000000       0.0000000       0.0000000       0.0000000       0.0000000       0.0000000       0.0000000       0.0000000       0.0000000       0.0000000       0.0000000       0.0000000       0.0000000       0.0000000       0.0000000       0.0000000       0.0000000       0.0000000       0.0000000       0.0000000       0.0000000       0.0000000       0.0000000       0.0000000       0.0000000       0.0000000       0.0000000       0.0000000       0.0000000       0.0000000       0.0000000       0.0000000       0.0000000       0.0000000       0.0000000       0.0000000       0.0000000       0.0000000       0.0000000       0.0000000       0.0000000       0.0000000       0.0000000       0.0000000       0.0000000       0.0000000       0.0000000       0.0000000       0.0000000       0.0000000       0.0000000       0.0000000       0.0000000       0.0000000       0.0000000       0.0000000       0.0000000       0.0000000       0.0000000       0.0000000       0.0000000       0.0000000       0.0000000       0.0000000       0.0000000       0.0000000       0.0000000       0.0000000       0.0000000       0.0000000       0.0000000       0.0000000       0.0000000       0.0000000       0.0000000       0.0000000       0.0000000       0.0000000       0.0000000       0.0000000       0.0000000       0.0000000       0.0000000       0.0000000       0.0000000       0.0000000       0.0000000       0.0000000       0.0000000       0.0000000       0.0000000       0.0000000      7.89222941E-06  6.41401639E-05  1.43976040E-05  0.22165164       6.0601621       49.877033       145.75955       274.10907       388.78741       393.34338       326.66241       336.02942       331.14124       270.98145       289.35620       356.17905       404.78262       422.87848       398.43094       363.77582       339.24707       325.66718       321.95462       306.44061       279.38770       251.75838       227.42532       206.58206       188.29842       191.05431       199.21951       182.51277       176.44972       192.19290       197.07477       175.04585       134.25580       102.29128       79.602135       76.790169       98.380913       124.26613       155.19333       178.26712       175.88713       160.62276       137.11327       102.80473       69.090179       66.151192       120.60193       178.61787       185.71863       155.96970       96.449539       28.053694       2.9321489       45.036865       116.60607       178.31845       246.84616       271.20615       172.62363       47.534416       23.934046       70.570358       102.41205       90.337334       47.933964       11.265235      8.13124608E-03  1.71003509E-02  3.41829732E-02
   0.0000000       0.0000000       0.0000000       0.0000000       0.0000000       0.0000000       0.0000000       0.0000000       0.0000000       0.0000000       0.0000000       0.0000000       0.0000000       0.0000000       0.0000000       0.0000000       0.0000000       0.0000000       0.0000000       0.0000000       0.0000000       0.0000000       0.0000000       0.0000000       0.0000000       0.0000000       0.0000000       0.0000000       0.0000000       0.0000000       0.0000000       0.0000000       0.0000000       0.0000000       0.0000000       0.0000000       0.0000000       0.0000000       0.0000000       0.0000000       0.0000000       0.0000000       0.0000000       0.0000000       0.0000000       0.0000000       0.0000000       0.0000000       0.0000000       0.0000000       0.0000000       0.0000000       0.0000000       0.0000000       0.0000000       0.0000000       0.0000000       0.0000000       0.0000000       0.0000000       0.0000000       0.0000000       0.0000000       0.0000000       0.0000000       0.0000000       0.0000000       0.0000000       0.0000000       0.0000000       0.0000000       0.0000000       0.0000000       0.0000000       0.0000000       0.0000000       0.0000000       0.0000000       0.0000000       0.0000000       0.0000000       0.0000000       0.0000000       0.0000000       0.0000000       0.0000000       0.0000000       0.0000000       0.0000000       0.0000000       0.0000000       0.0000000       0.0000000       0.0000000       0.0000000       0.0000000      2.27062599E-04  1.89140812E-03  1.94874278E-03   1.9316758       27.199963       123.08549       327.42395       573.38763       642.42981       591.95813       689.70038       768.73413       705.44910       667.13586       676.60529       681.75378       630.14783       531.74799       463.10159       430.62137       395.87671       360.58289       336.91144       318.85706       309.49588       316.48068       322.70340       317.14236       324.40268       337.36224       318.41229       286.92209       278.00891       284.12143       280.17688       259.06271       229.89632       181.17761       137.63792       136.36888       167.87740       213.47266       241.66667       235.42610       221.63837       204.99345       165.07242       106.72462       55.433884       69.732506       140.52975       184.49344       184.26492       136.09441       49.547188       5.1000433       58.588116       175.54233       265.19528       299.03244       280.15778       179.04332       55.845116       20.397163       54.723808       68.976524       44.612488       16.470592       2.9290817      6.96381088E-03  3.07722464E-02  2.36284416E-02
   0.0000000       0.0000000       0.0000000       0.0000000       0.0000000       0.0000000       0.0000000       0.0000000       0.0000000       0.0000000       0.0000000       0.0000000       0.0000000       0.0000000       0.0000000       0.0000000       0.0000000       0.0000000       0.0000000       0.0000000       0.0000000       0.0000000       0.0000000       0.0000000       0.0000000       0.0000000       0.0000000       0.0000000       0.0000000       0.0000000       0.0000000       0.0000000       0.0000000       0.0000000       0.0000000       0.0000000       0.0000000       0.0000000       0.0000000       0.0000000       0.0000000       0.0000000       0.0000000       0.0000000       0.0000000       0.0000000       0.0000000       0.0000000       0.0000000       0.0000000       0.0000000       0.0000000       0.0000000       0.0000000       0.0000000       0.0000000       0.0000000       0.0000000       0.0000000       0.0000000       0.0000000       0.0000000       0.0000000       0.0000000       0.0000000       0.0000000       0.0000000       0.0000000       0.0000000       0.0000000       0.0000000       0.0000000       0.0000000       0.0000000       0.0000000       0.0000000       0.0000000       0.0000000       0.0000000       0.0000000       0.0000000       0.0000000       0.0000000       0.0000000       0.0000000       0.0000000       0.0000000       0.0000000       0.0000000       0.0000000       0.0000000       0.0000000       0.0000000       0.0000000       0.0000000       0.0000000      3.25054483E-04  2.70766974E-03  6.21743908E-04  0.12248577       8.2952375       95.958755       350.62772       691.20013       830.49011       791.12842       898.90656       1079.1189       1168.1250       1182.3544       1130.1046       1008.0879       825.25092       676.77905       582.24799       500.73605       426.91107       375.82840       376.27682       385.66522       373.33737       383.52090       410.47922       428.71838       479.05789       565.38422       593.89099       506.29596       390.88757       360.70612       384.16748       380.83636       339.53912       275.98630       239.87877       255.94783       282.49573       287.70453       265.20819       241.09462       249.22235       262.57443       236.38097       198.49501       161.97562       113.31024       110.70067       174.42029       230.89658       197.41965       82.295380       11.159121       66.917191       204.53949       296.43384       296.82092       248.94847       158.75186       54.754917       10.154090       22.445044       31.739443       17.046152       2.7732892      3.87527943E-02  2.51439326E-02  2.04011891E-02  1.07089849E-02
   0.0000000       0.0000000       0.0000000       0.0000000       0.0000000       0.0000000       0.0000000       0.0000000       0.0000000       0.0000000       0.0000000       0.0000000       0.0000000       0.0000000       0.0000000       0.0000000       0.0000000       0.0000000       0.0000000       0.0000000       0.0000000       0.0000000       0.0000000       0.0000000       0.0000000       0.0000000       0.0000000       0.0000000       0.0000000       0.0000000       0.0000000       0.0000000       0.0000000       0.0000000       0.0000000       0.0000000       0.0000000       0.0000000       0.0000000       0.0000000       0.0000000       0.0000000       0.0000000       0.0000000       0.0000000       0.0000000       0.0000000       0.0000000       0.0000000       0.0000000       0.0000000       0.0000000       0.0000000       0.0000000       0.0000000       0.0000000       0.0000000       0.0000000       0.0000000       0.0000000       0.0000000       0.0000000       0.0000000       0.0000000       0.0000000       0.0000000       0.0000000       0.0000000       0.0000000       0.0000000       0.0000000       0.0000000       0.0000000       0.0000000       0.0000000       0.0000000       0.0000000       0.0000000       0.0000000       0.0000000       0.0000000       0.0000000       0.0000000       0.0000000       0.0000000       0.0000000       0.0000000       0.0000000       0.0000000       0.0000000       0.0000000       0.0000000       0.0000000       0.0000000       0.0000000       0.0000000      2.84778321E-06  2.37217428E-05  5.44706290E-06  0.20101324       9.6177216       100.81918       340.06717       670.83569       883.63458       858.82898       855.22614       1033.5891       1258.6765       1387.4011       1313.3574       1057.4746       810.31903       694.80450       600.37915       468.60123       364.06570       342.31656       418.49124       500.61209       502.28391       470.53644       476.95465       517.23157       607.84113       751.99872       830.77350       730.81592       545.48083       473.95102       500.83783       493.59418       442.49179       392.97943       394.28003       433.39163       436.78616       371.21664       262.83496       200.85570       248.17613       333.50647       349.61359       337.43362       326.45123       218.37015       112.36859       170.96690       275.35016       248.66978       106.99881       15.914542       75.064606       206.45825       265.58514       238.54997       191.80354       123.22121       42.075947       3.6429021       2.6896288       6.6575251       4.5162992      0.61440629      2.39201300E-02  2.23844312E-02  1.54029019E-02  0.10103699    
   0.0000000       0.0000000       0.0000000       0.0000000       0.0000000       0.0000000       0.0000000       0.0000000       0.0000000       0.0000000       0.0000000       0.0000000       0.0000000       0.0000000       0.0000000       0.0000000       0.0000000       0.0000000       0.0000000       0.0000000       0.0000000       0.0000000       0.0000000       0.0000000       0.0000000       0.0000000       0.0000000       0.0000000       0.0000000       0.0000000       0.0000000       0.0000000       0.0000000       0.0000000       0.0000000       0.0000000       0.0000000       0.0000000       0.0000000       0.0000000       0.0000000       0.0000000       0.0000000       0.0000000       0.0000000       0.0000000       0.0000000       0.0000000       0.0000000       0.0000000       0.0000000       0.0000000       0.0000000       0.0000000       0.0000000       0.0000000       0.0000000       0.0000000       0.0000000       0.0000000       0.0000000       0.0000000       0.0000000       0.0000000       0.0000000       0.0000000       0.0000000       0.0000000       0.0000000       0.0000000       0.0000000       0.0000000       0.0000000       0.0000000       0.0000000       0.0000000       0.0000000       0.0000000       0.0000000       0.0000000       0.0000000       0.0000000       0.0000000       0.0000000       0.0000000       0.0000000       0.0000000       0.0000000       0.0000000       0.0000000       0.0000000       0.0000000       0.0000000       0.0000000       0.0000000       0.0000000       0.0000000       0.0000000       0.0000000      0.17240028       6.2553473       62.595051       230.60951       516.97882       774.46436       762.30396       657.00958       732.85236       912.35333       1061.8953       996.88342       727.54333       524.21680       461.51660       400.62424       292.95724       214.53651       268.25098       452.72711       628.30255       660.39233       574.17126       528.08594       551.84393       604.01770       691.75446       762.30591       738.74219       636.09039       568.34802       559.52637       542.71515       518.90369       507.25604       512.69196       510.24762       466.66672       369.11160       229.36511       161.88814       265.42355       430.47867       487.04288       452.51566       392.66104       248.95268       119.03640       177.83562       292.48923       258.61139       107.72807       15.439127       60.982761       148.82523       163.19189       123.96436       91.292107       55.508167       17.471601       1.6818506      0.27219662       1.4244386       2.9891007       3.0536647       1.7366973      0.36319938      1.48490144E-04  0.12869439    
   0.0000000       0.0000000       0.0000000       0.0000000       0.0000000       0.0000000       0.0000000       0.0000000       0.0000000       0.0000000       0.0000000       0.0000000       0.0000000       0.0000000       0.0000000       0.0000000       0.0000000       0.0000000       0.0000000       0.0000000       0.0000000       0.0000000       0.0000000       0.0000000       0.0000000       0.0000000       0.0000000       0.0000000       0.0000000       0.0000000       0.0000000       0.0000000       0.0000000       0.0000000       0.0000000       0.0000000       0.0000000       0.0000000       0.0000000       0.0000000       0.0000000       0.0000000       0.0000000       0.0000000       0.0000000       0.0000000       0.0000000       0.0000000       0.0000000       0.0000000       0.0000000       0.0000000       0.0000000       0.0000000       0.0000000       0.0000000       0.0000000       0.0000000       0.0000000       0.0000000       0.0000000       0.0000000       0.0000000       0.0000000       0.0000000       0.0000000       0.0000000       0.0000000       0.0000000       0.0000000       0.0000000       0.0000000       0.0000000       0.0000000       0.0000000       0.0000000       0.0000000       0.0000000       0.0000000       0.0000000       0.0000000       0.0000000       0.0000000       0.0000000       0.0000000       0.0000000       0.0000000       0.0000000       0.0000000       0.0000000       0.0000000       0.0000000       0.0000000       0.0000000       0.0000000       0.0000000       0.0000000      4.99645190E-04  9.84128751E-03  5.16934656E-02  0.60768616       15.404690       130.94823       407.24594       623.52490       558.51428       411.65402       394.71310       475.62283       570.08966       509.22205       322.21838       191.73627       147.04572       126.13527       89.587593       76.888145       191.35945       440.31555       680.39032       754.67242       669.46906       599.66699       592.44092       576.30914       579.75952       622.25262       676.13904       681.06805       611.25586       540.19061       520.47015       534.43445       557.12958       565.08618       509.34421       405.66327       293.17194       165.83540       128.33121       279.69547       482.72968       573.98425       536.05066       416.78918       244.45323       124.51534       182.40332       274.39807       217.07649       79.559792       9.4762115       24.153250       52.411991       47.473919       26.932547       14.895190       15.516196       21.917150       18.170429       7.3527594       3.4255757       12.678620       25.777733       23.195658       8.1064701      0.17631060      0.38940594    
   0.0000000       0.0000000       0.0000000       0.0000000       0.0000000       0.0000000       0.0000000       0.0000000       0.0000000       0.0000000       0.0000000       0.0000000       0.0000000       0.0000000       0.0000000       0.0000000       0.0000000       0.0000000       0.0000000       0.0000000       0.0000000       0.0000000       0.0000000       0.0000000       0.0000000       0.0000000       0.0000000       0.0000000       0.0000000       0.0000000       0.0000000       0.0000000       0.0000000       0.0000000       0.0000000       0.0000000       0.0000000       0.0000000       0.0000000       0.0000000       0.0000000       0.0000000       0.0000000       0.0000000       0.0000000       0.0000000       0.0000000       0.0000000       0.0000000       0.0000000       0.0000000       0.0000000       0.0000000       0.0000000       0.0000000       0.0000000       0.0000000       0.0000000       0.0000000       0.0000000       0.0000000       0.0000000       0.0000000       0.0000000       0.0000000       0.0000000       0.0000000       0.0000000       0.0000000       0.0000000       0.0000000       0.0000000       0.0000000       0.0000000       0.0000000       0.0000000       0.0000000       0.0000000       0.0000000       0.0000000       0.0000000       0.0000000       0.0000000       0.0000000       0.0000000       0.0000000       0.0000000       0.0000000       0.0000000       0.0000000       0.0000000       0.0000000       0.0000000       0.0000000       0.0000000       0.0000000       0.0000000      7.79036956E-04  1.58729944E-02  8.23969692E-02  2.55460422E-02   7.1144333       96.533081       340.91010       466.82596       337.04858       185.27499       137.46788       166.53970       205.95885       162.85143       80.362968       27.378557       5.8811479       3.4790628       2.2988245       17.012722       122.82095       333.32227       561.08301       691.20496       674.41803       640.23053       674.24249       664.78485       639.65747       674.80035       733.97937       727.23114       609.83704       490.09811       483.47775       552.89050       639.04224       714.91101       659.87701       470.99017       265.83813       101.40288       61.778217       200.73322       407.59311       566.12592       608.87952       495.71674       277.32706       129.52573       163.70241       208.05650       129.02441       34.204285       2.3610442       1.2507653       5.7255473       9.8166122       8.4816198       6.0681305       32.789043       72.294777       70.798820       38.193188       13.853352       26.401476       67.419189       72.639732       32.559315       8.4824982       9.7682495    
   0.0000000       0.0000000       0.0000000       0.0000000       0.0000000       0.0000000       0.0000000       0.0000000       0.0000000       0.0000000       0.0000000       0.0000000       0.0000000       0.0000000       0.0000000       0.0000000       0.0000000       0.0000000       0.0000000       0.0000000       0.0000000       0.0000000       0.0000000       0.0000000       0.0000000       0.0000000       0.0000000       0.0000000       0.0000000       0.0000000       0.0000000       0.0000000       0.0000000       0.0000000       0.0000000       0.0000000       0.0000000       0.0000000       0.0000000       0.0000000       0.0000000       0.0000000       0.0000000       0.0000000       0.0000000       0.0000000       0.0000000       0.0000000       0.0000000       0.0000000       0.0000000       0.0000000       0.0000000       0.0000000       0.0000000       0.0000000       0.0000000       0.0000000       0.0000000       0.0000000       0.0000000       0.0000000       0.0000000       0.0000000       0.0000000       0.0000000       0.0000000       0.0000000       0.0000000       0.0000000       0.0000000       0.0000000       0.0000000       0.0000000       0.0000000       0.0000000       0.0000000       0.0000000       0.0000000       0.0000000       0.0000000       0.0000000       0.0000000       0.0000000       0.0000000       0.0000000       0.0000000       0.0000000       0.0000000       0.0000000       0.0000000       0.0000000       0.0000000       0.0000000       0.0000000       0.0000000       0.0000000      9.66431162E-06  1.03266619E-03  1.70405265E-02  8.02793354E-02   3.3250344       46.555557       173.19035       223.05577       133.80936       47.147362       18.924870       21.331869       26.489468       15.321918       3.7631886      0.46449995      5.28957583E-02  2.58114506E-02  0.50373626       11.288187       71.697662       175.78822       314.46283       453.61319       500.69882       534.25739       637.77588       665.26959       639.76447       678.83923       726.68195       674.37305       520.94452       385.23361       410.42307       562.41418       722.64874       884.59247       877.75562       605.03400       264.85538       81.108086       73.667564       152.22246       297.32199       470.80975       566.80969       476.34012       238.01627       81.189957       87.987877       94.153496       40.479832       10.055017       14.300655       23.605068       50.614616       76.155525       68.612007       40.950203       50.518921       104.02872       122.80801       80.675331       26.932175       25.915382       84.189949       108.03419       68.470024       42.494858       40.835655    
   0.0000000       0.0000000       0.0000000       0.0000000       0.0000000       0.0000000       0.0000000       0.0000000       0.0000000       0.0000000       0.0000000       0.0000000       0.0000000       0.0000000       0.0000000       0.0000000       0.0000000       0.0000000       0.0000000       0.0000000       0.0000000       0.0000000       0.0000000       0.0000000       0.0000000       0.0000000       0.0000000       0.0000000       0.0000000       0.0000000       0.0000000       0.0000000       0.0000000       0.0000000       0.0000000       0.0000000       0.0000000       0.0000000       0.0000000       0.0000000       0.0000000       0.0000000       0.0000000       0.0000000       0.0000000       0.0000000       0.0000000       0.0000000       0.0000000       0.0000000       0.0000000       0.0000000       0.0000000       0.0000000       0.0000000       0.0000000       0.0000000       0.0000000       0.0000000       0.0000000       0.0000000       0.0000000       0.0000000       0.0000000       0.0000000       0.0000000       0.0000000       0.0000000       0.0000000       0.0000000       0.0000000       0.0000000       0.0000000       0.0000000       0.0000000       0.0000000       0.0000000       0.0000000       0.0000000       0.0000000       0.0000000       0.0000000       0.0000000       0.0000000       0.0000000       0.0000000       0.0000000       0.0000000       0.0000000       0.0000000       0.0000000       0.0000000       0.0000000       0.0000000       0.0000000       0.0000000       0.0000000       0.0000000      1.11869513E-05  1.47062773E-02  0.17090404      0.66185749       4.7560606       24.101448       32.006660       16.423569       2.9021137      0.23108435      0.25859442      0.32122040      0.17882435      3.75399739E-02  2.09147343E-03  1.25286728E-03  4.02394857E-04  0.55829918       9.9416332       30.695004       53.251278       110.62624       189.20572       243.52861       327.23947       417.24072       415.05038       383.63608       432.01004       529.11353       516.58655       357.22644       208.20798       242.25406       411.55838       574.72876       747.12543       791.79108       577.06909       308.97327       285.88699       410.61615       425.97394       386.78348       371.08420       358.66064       273.99915       111.95226       17.362175       13.376257       11.135836       16.212479       62.966633       109.05014       119.93933       157.20901       203.66093       186.59119       112.38801       56.494164       77.799873       112.93283       84.329834       26.630096       15.587019       69.529335       113.98687       104.81058       89.113014       75.943138    
   0.0000000       0.0000000       0.0000000       0.0000000       0.0000000       0.0000000       0.0000000       0.0000000       0.0000000       0.0000000       0.0000000       0.0000000       0.0000000       0.0000000       0.0000000       0.0000000       0.0000000       0.0000000       0.0000000       0.0000000       0.0000000       0.0000000       0.0000000       0.0000000       0.0000000       0.0000000       0.0000000       0.0000000       0.0000000       0.0000000       0.0000000       0.0000000       0.0000000       0.0000000       0.0000000       0.0000000       0.0000000       0.0000000       0.0000000       0.0000000       0.0000000       0.0000000       0.0000000       0.0000000       0.0000000       0.0000000       0.0000000       0.0000000       0.0000000       0.0000000       0.0000000       0.0000000       0.0000000       0.0000000       0.0000000       0.0000000       0.0000000       0.0000000       0.0000000       0.0000000       0.0000000       0.0000000       0.0000000       0.0000000       0.0000000       0.0000000       0.0000000       0.0000000       0.0000000       0.0000000       0.0000000       0.0000000       0.0000000       0.0000000       0.0000000       0.0000000       0.0000000       0.0000000       0.0000000       0.0000000       0.0000000       0.0000000       0.0000000       0.0000000       0.0000000       0.0000000       0.0000000       0.0000000       0.0000000       0.0000000       0.0000000       0.0000000       0.0000000       0.0000000       0.0000000       0.0000000       0.0000000       0.0000000       0.0000000      9.65133600E-04  7.40579367E-02  0.61077470      0.20963958      0.31149572      0.41496310      0.20946153      3.28305438E-02  1.45918108E-04  4.11567453E-05   0.0000000       0.0000000       0.0000000      1.54582944E-04  3.05275107E-03  1.68398321E-02  0.22432259       2.8793809       3.8162808       4.3735280       25.203232       44.084183       68.954002       136.05077       167.50052       129.44493       98.688133       133.45058       244.99011       283.92743       174.45885       61.394489       65.297310       144.90443       240.44319       339.38943       381.50354       368.03745       430.00589       664.01233       860.29193       804.07208       584.77570       325.51999       146.23734       69.681396       21.069319      0.71739721       5.6158805       35.500576       111.07526       229.88504       294.56921       262.40833       253.44742       284.48093       264.14499       176.17990       75.434029       37.805340       53.719662       47.396996       16.289305       8.6900568       54.812317       116.56171       130.11223       108.39584       84.428085    
   0.0000000       0.0000000       0.0000000       0.0000000       0.0000000       0.0000000       0.0000000       0.0000000       0.0000000       0.0000000       0.0000000       0.0000000       0.0000000       0.0000000       0.0000000       0.0000000       0.0000000       0.0000000       0.0000000       0.0000000       0.0000000       0.0000000       0.0000000       0.0000000       0.0000000       0.0000000       0.0000000       0.0000000       0.0000000       0.0000000       0.0000000       0.0000000       0.0000000       0.0000000       0.0000000       0.0000000       0.0000000       0.0000000       0.0000000       0.0000000       0.0000000       0.0000000       0.0000000       0.0000000       0.0000000       0.0000000       0.0000000       0.0000000       0.0000000       0.0000000       0.0000000       0.0000000       0.0000000       0.0000000       0.0000000       0.0000000       0.0000000       0.0000000       0.0000000       0.0000000       0.0000000       0.0000000       0.0000000       0.0000000       0.0000000       0.0000000       0.0000000       0.0000000       0.0000000       0.0000000       0.0000000       0.0000000       0.0000000       0.0000000       0.0000000       0.0000000       0.0000000       0.0000000       0.0000000       0.0000000       0.0000000       0.0000000       0.0000000       0.0000000       0.0000000       0.0000000       0.0000000       0.0000000       0.0000000       0.0000000       0.0000000       0.0000000       0.0000000       0.0000000       0.0000000       0.0000000       0.0000000       0.0000000       0.0000000      1.14698259E-05  1.08330918E-03  9.13363975E-03  2.56755739E-03  7.53188069E-05   0.0000000       0.0000000      2.22295748E-05  2.48302676E-04  7.00346718E-05   0.0000000       0.0000000       0.0000000      2.31764034E-06  1.67735666E-03  2.75259111E-02  7.67359287E-02  7.05145746E-02  9.38459635E-02  0.25234583       3.4546587       3.2057753       6.9432340       25.126255       28.045763       9.4607611       1.8342100       7.0146594       44.052109       64.862701       36.649719       7.4741654       1.0375327       5.7822967       28.359343       49.815308       61.740093       149.57735       388.59586       682.67554       810.23163       692.79553       459.09186       211.24699       45.630150       1.0708865       5.6366801       5.7273483       26.732965       136.15054       303.60919       423.92340       426.62033       347.80685       290.36490       278.15698       261.30515       200.36934       100.39573       24.683170       10.850721       15.456761       6.8672776       3.3786676       40.931805       106.59435       129.58260       101.43614       70.937691    
   0.0000000       0.0000000       0.0000000       0.0000000       0.0000000       0.0000000       0.0000000       0.0000000       0.0000000       0.0000000       0.0000000       0.0000000       0.0000000       0.0000000       0.0000000       0.0000000       0.0000000       0.0000000       0.0000000       0.0000000       0.0000000       0.0000000       0.0000000       0.0000000       0.0000000       0.0000000       0.0000000       0.0000000       0.0000000       0.0000000       0.0000000       0.0000000       0.0000000       0.0000000       0.0000000       0.0000000       0.0000000       0.0000000       0.0000000       0.0000000       0.0000000       0.0000000       0.0000000       0.0000000       0.0000000       0.0000000       0.0000000       0.0000000       0.0000000       0.0000000       0.0000000       0.0000000       0.0000000       0.0000000       0.0000000       0.0000000       0.0000000       0.0000000       0.0000000       0.0000000       0.0000000       0.0000000       0.0000000       0.0000000       0.0000000       0.0000000       0.0000000       0.0000000       0.0000000      1.37949700E-03  6.01240108E-03  7.22414465E-04   0.0000000      9.36673139E-04  4.48310794E-03  6.09604351E-04  8.76014019E-05  1.22351212E-05   0.0000000      8.57716877E-05  4.68434533E-04  7.28466039E-05  8.40756002E-06  4.91039427E-05  8.21976846E-06   0.0000000      3.07728874E-06  1.98055550E-05  3.62915625E-06   0.0000000       0.0000000       0.0000000       0.0000000       0.0000000       0.0000000       0.0000000       0.0000000       0.0000000       0.0000000       0.0000000       0.0000000      4.89294109E-07  4.66391339E-06  1.19222091E-06   0.0000000       0.0000000      3.51871847E-07  3.93038090E-06  1.10857843E-06   0.0000000       0.0000000       0.0000000       0.0000000      2.60559555E-05  4.35548602E-04  1.68404100E-03  1.26526523E-02  7.43208155E-02  3.22497450E-02  5.10226414E-02  4.11831960E-02  9.50522572E-02  0.36953360      0.40887022      0.12296408      4.41970490E-02  9.65097696E-02  0.64617252      0.96909201      0.54513389      0.12475301      1.19543504E-02  0.10134096      0.41691470      0.71616060       1.6699340       33.122021       141.13843       279.24219       326.35553       236.77609       122.06357       48.001656       10.085257       17.192556       86.753571       130.65976       143.07309       269.33676       466.37305       527.24799       436.10364       326.17059       244.08000       194.65405       189.41861       178.63167       118.62047       46.017284       13.273427       13.501617       15.211332       8.8832731       22.436832       67.220207       91.820030       75.193970       47.997875    
   0.0000000       0.0000000       0.0000000       0.0000000       0.0000000       0.0000000       0.0000000       0.0000000       0.0000000       0.0000000       0.0000000       0.0000000       0.0000000       0.0000000       0.0000000       0.0000000       0.0000000       0.0000000       0.0000000       0.0000000       0.0000000       0.0000000       0.0000000       0.0000000       0.0000000       0.0000000       0.0000000       0.0000000       0.0000000       0.0000000       0.0000000       0.0000000       0.0000000       0.0000000       0.0000000       0.0000000       0.0000000       0.0000000       0.0000000       0.0000000       0.0000000       0.0000000       0.0000000       0.0000000       0.0000000       0.0000000       0.0000000       0.0000000       0.0000000       0.0000000       0.0000000       0.0000000       0.0000000       0.0000000       0.0000000       0.0000000       0.0000000       0.0000000       0.0000000       0.0000000       0.0000000       0.0000000       0.0000000       0.0000000       0.0000000       0.0000000      4.12964146E-05  5.28583396E-03  2.13589072E-02  4.88553476E-03  1.06782056E-02  1.28302979E-03   0.0000000      1.66355958E-03  7.96213374E-03  1.08267518E-03  1.55582718E-04  2.17299585E-05   0.0000000      1.52333101E-04  8.31953948E-04  1.29377760E-04  1.49320795E-05  8.72100863E-05  1.45985496E-05   0.0000000      4.16971627E-04  3.75068956E-03  7.54884956E-03  1.38591707E-03  1.27424937E-05   0.0000000       0.0000000       0.0000000       0.0000000       0.0000000       0.0000000       0.0000000       0.0000000       0.0000000       0.0000000       0.0000000       0.0000000       0.0000000       0.0000000       0.0000000       0.0000000       0.0000000       0.0000000       0.0000000       0.0000000       0.0000000       0.0000000       0.0000000       0.0000000      9.06217065E-06  2.17181529E-04  1.80742377E-03  8.27028230E-03  2.78617372E-03   0.0000000       0.0000000       0.0000000       0.0000000      3.07449745E-03  6.65049553E-02  2.70897169E-02   0.0000000       0.0000000      1.30048918E-03  3.46537307E-02  1.83619987E-02  7.56545588E-02  3.65595706E-02  2.83091348E-02  7.70058408E-02  0.57194388       2.6549187       15.677263       25.096828       11.553596       2.2610581      0.91784215      0.98553205       58.351772       268.09259       462.27734       500.23874       565.42627       665.55469       574.46008       352.33704       204.47307       125.89471       77.553802       86.144531       121.46308       134.89731       108.80228       65.701851       58.721321       78.411209       68.108238       37.670345       29.887129       34.140568       30.354204       21.047649    
   0.0000000       0.0000000       0.0000000       0.0000000       0.0000000       0.0000000       0.0000000       0.0000000       0.0000000       0.0000000       0.0000000       0.0000000       0.0000000       0.0000000       0.0000000       0.0000000       0.0000000       0.0000000       0.0000000       0.0000000       0.0000000       0.0000000       0.0000000       0.0000000       0.0000000       0.0000000       0.0000000       0.0000000       0.0000000       0.0000000       0.0000000       0.0000000       0.0000000       0.0000000       0.0000000       0.0000000       0.0000000       0.0000000       0.0000000       0.0000000       0.0000000       0.0000000       0.0000000       0.0000000       0.0000000       0.0000000       0.0000000       0.0000000       0.0000000       0.0000000       0.0000000       0.0000000       0.0000000       0.0000000       0.0000000       0.0000000       0.0000000       0.0000000       0.0000000       0.0000000       0.0000000       0.0000000       0.0000000       0.0000000       0.0000000       0.0000000      7.47542217E-05  1.94173232E-02  7.97360614E-02  9.14364960E-03  2.06675337E-04  4.16931845E-02  0.74378455       3.3140318       4.0703278       2.2606697      0.25515169      4.56792451E-02  0.15930268      2.34739706E-02  0.21952799       1.2976549      0.60946274      6.78106993E-02  7.68247817E-04  4.56268014E-03  1.54493086E-03  6.72645681E-03  1.36532802E-02  2.50876904E-03  2.30662772E-05   0.0000000       0.0000000       0.0000000       0.0000000      1.43243978E-03  1.16414484E-02  2.61316565E-03   0.0000000       0.0000000       0.0000000       0.0000000       0.0000000       0.0000000       0.0000000       0.0000000       0.0000000       0.0000000       0.0000000       0.0000000       0.0000000       0.0000000       0.0000000       0.0000000       0.0000000       0.0000000      1.83578059E-08  9.79229208E-06  1.51591768E-04  5.39260436E-05   0.0000000       0.0000000       0.0000000       0.0000000      5.95065176E-05  1.28719537E-03  5.24318079E-04   0.0000000       0.0000000      2.51708079E-05  6.70718902E-04  3.55394237E-04  1.46428461E-03  2.20357184E-03  5.12448065E-02  0.11466010      4.91643138E-02  6.94284681E-03  0.21336202      0.38186494      0.15523295      0.40535221      0.22850963      0.89566177       64.117020       338.90820       731.24078       998.97504       1102.5696       991.59442       613.15985       227.91240       64.593674       25.630423       8.3474503       21.102995       79.356636       156.53799       180.72198       137.44066       122.13100       163.55246       166.38051       96.942360       26.745796       1.9629296       1.9142337       3.2524559    
   0.0000000       0.0000000       0.0000000       0.0000000       0.0000000       0.0000000       0.0000000       0.0000000       0.0000000       0.0000000       0.0000000       0.0000000       0.0000000       0.0000000       0.0000000       0.0000000       0.0000000       0.0000000       0.0000000       0.0000000       0.0000000       0.0000000       0.0000000       0.0000000       0.0000000       0.0000000       0.0000000       0.0000000       0.0000000       0.0000000       0.0000000       0.0000000       0.0000000       0.0000000       0.0000000       0.0000000       0.0000000       0.0000000       0.0000000       0.0000000       0.0000000       0.0000000       0.0000000       0.0000000       0.0000000       0.0000000       0.0000000       0.0000000       0.0000000       0.0000000       0.0000000       0.0000000       0.0000000       0.0000000       0.0000000       0.0000000       0.0000000       0.0000000       0.0000000       0.0000000       0.0000000       0.0000000       0.0000000       0.0000000       0.0000000      8.70365602E-06  2.65670731E-03  2.90748775E-02  0.14747821      0.76029652       3.6805565       11.934470       31.130293       65.557014       76.050507       49.062160       42.737888       61.707676       57.630886       33.070240       30.523500       47.537773       52.150063       51.248245       39.433182       19.549662       7.3591113       3.3461292      0.46274793      5.29626341E-05  4.86952388E-07   0.0000000       0.0000000       0.0000000       0.0000000      2.64317426E-03  3.52705456E-02  0.11968677      2.63756420E-02   0.0000000       0.0000000       0.0000000       0.0000000       0.0000000       0.0000000       0.0000000       0.0000000       0.0000000       0.0000000       0.0000000       0.0000000       0.0000000       0.0000000       0.0000000       0.0000000       0.0000000       0.0000000       0.0000000       0.0000000       0.0000000       0.0000000       0.0000000       0.0000000       0.0000000       0.0000000       0.0000000       0.0000000       0.0000000       0.0000000       0.0000000       0.0000000       0.0000000       0.0000000      3.19226674E-05  1.08182954E-03  2.60671531E-03  7.72662787E-03  3.46323685E-03   0.0000000       0.0000000      3.39614140E-04  1.76515020E-02  9.95158963E-03  0.33308449       25.763229       267.84308       789.08636       1289.0945       1435.4939       1109.6597       526.35223       115.62286       3.6037776      0.50025976      0.90872335       15.762136       75.198212       153.16878       171.87885       123.56615       100.63562       140.49576       161.22157       106.10395       30.416372      0.36082765      2.87327375E-02  6.09776303E-02
[...]
   327.58679       597.03076       810.28546       953.48676       1180.4309       1476.5948       1623.4648       1493.3794       1312.6852       1341.7416       1426.2418       1339.7279       1153.9453       996.94897       842.44373       712.23383       651.15881       559.81641       483.95297       532.38971       581.09375       545.36096       511.57477       473.36221       348.94998       222.76172       219.67245       287.94626       305.20667       285.08420       316.07016       388.27332       426.69586       396.46182       341.13412       308.59229       310.79910       344.92715       306.19955       172.88234       93.133621       67.947433       42.238106       32.970398       45.274368       65.104958       65.916000       49.709908       30.259417       14.488469       6.0405817       3.5107040       2.0266545      0.30926630       2.4195669       12.050957       16.621956       7.4181433       6.7514520       30.538557       74.396950       113.49569       127.40015       108.70103       74.175987       45.834141       23.874731       8.3370676       1.8656672      0.14355975      1.38086779E-02  0.49915358       2.9147890       5.2585025       4.9516807       2.9130371       1.4768852      0.62124842       1.3788003       3.2107205       2.4299493      0.59762299       1.8239053       8.8560171       20.974657       35.061512       57.531448       91.506554       127.97772       149.07442       148.74643       154.50610       176.30214       188.80019       177.96562       158.43457       152.21646       150.88669       144.52325       147.76180       153.32797       153.90582       172.19691       199.15004       211.22391       220.53650       226.61359       220.29343       216.98238       208.03035       174.62115       146.31200       131.50462       98.207794       50.110531       29.104557       50.502136       89.342545       134.66185       183.45528       215.33896       228.23306       246.17233       263.01569       260.62903       204.15077       91.553368       16.068027      1.31490827E-03  3.36402953E-02  1.49306441E-02   0.0000000       0.0000000       0.0000000       0.0000000       0.0000000       0.0000000       0.0000000       0.0000000       0.0000000       0.0000000       0.0000000       0.0000000       0.0000000       0.0000000      2.37500244E-05  1.79516291E-03  6.57153968E-03  0.53455579       6.2519054       33.347862       96.624611       147.45137       116.53436       40.175545       3.0576541      8.55677426E-02  6.64161593E-02   0.0000000       0.0000000       0.0000000       0.0000000       0.0000000       0.0000000       0.0000000       0.0000000       0.0000000       0.0000000    
   415.14020       620.71631       814.49707       1000.6003       1336.0292       1797.9155       2083.5625       2050.3167       1939.2780       1955.3357       1990.0170       1859.3986       1636.3912       1463.7865       1205.4944       872.22742       674.20795       569.32617       536.01404       643.05164       754.14960       729.31921       638.69946       548.22681       419.94116       299.24457       275.07504       315.20438       328.89990       305.27194       307.80615       361.54205       424.42957       448.74359       399.30566       301.36676       253.51361       276.79056       250.89099       145.57462       78.684753       59.882942       41.466366       34.591625       47.490940       67.120773       71.654617       59.747890       37.333504       15.887151       6.2465134       3.6371028       1.8167795      0.77950466       3.6104116       8.0196104       5.3481975      0.38479140      0.68525791       8.2700186       31.910736       51.972393       52.400127       39.548065       22.784199       10.226231       2.7056763      0.20209916      3.07362527E-02  0.13101132      1.53471744E-02   0.0000000      9.19325248E-05  2.74278726E-02  0.12949188      1.81319490E-02  1.44358419E-04  6.06501177E-02  0.52076811       1.2684838      0.94176102      0.87195194       5.6757493       20.996584       42.018345       59.000916       75.936264       97.408882       122.72633       141.31265       144.33493       154.36600       179.70142       188.97589       166.17804       141.81018       139.90454       140.85460       136.55977       143.95622       163.11975       174.68402       180.07571       191.02679       200.25720       209.43440       207.69087       183.41499       172.40024       176.32423       158.30942       136.52277       125.35001       98.705711       53.377529       16.328949       19.151215       68.147102       125.45272       165.76451       191.43564       201.24236       219.47183       247.51785       253.33960       211.48999       117.73706       31.690094       2.6449678      2.95875669E-02  3.21504660E-02  8.76603369E-03   0.0000000       0.0000000      1.20212371E-03  4.07673791E-02  2.04575919E-02   0.0000000       0.0000000       0.0000000       0.0000000       0.0000000       0.0000000       0.0000000       0.0000000      2.07060966E-05  1.56508514E-03  5.27104316E-03  0.39918137       2.8048291       19.709822       72.030846       124.33974       104.89838       37.762100       3.1736734      2.11294815E-02  1.64003260E-02   0.0000000       0.0000000       0.0000000       0.0000000       0.0000000       0.0000000       0.0000000       0.0000000       0.0000000      1.41585479E-05
   452.44769       635.55286       899.15527       1217.6296       1604.5631       1981.4967       2160.5808       2149.3223       2179.0769       2234.2114       2207.0137       2178.4348       2120.0073       1980.0582       1732.2682       1327.1464       898.83887       609.01129       507.38580       557.59241       659.99011       717.84363       687.18677       586.06812       456.45917       366.08536       348.03784       359.69733       348.28021       308.51559       286.93442       309.95694       377.75922       468.98251       459.07550       319.22461       219.75810       208.67892       178.72789       110.82991       73.538673       65.249901       46.734150       33.975567       41.182465       57.194778       70.506622       70.322334       46.393345       16.520512       3.9323688       1.3679295      0.39660987      0.92369491       5.5478935       10.621234       6.2073274      0.57386124      1.14385607E-02   1.2198272       6.6925693       11.213658       10.877523       7.8999329       3.6042461       1.3862785      0.71455342       2.9205906       5.6934114       4.9644284       1.8632660      0.25368041      5.14656007E-02  3.66879590E-02  4.17762809E-03  8.65128550E-06  1.95967557E-04  8.33894964E-03  5.19736856E-02  9.27256346E-02  0.21997245       1.5234390       9.5706654       31.476154       59.137333       79.701584       92.787514       102.72675       117.63229       134.01366       138.59343       143.81044       162.65034       169.23532       146.52548       125.58769       123.88875       124.80917       126.28471       139.24931       167.57828       188.73222       187.41771       185.67169       195.05287       208.61049       201.08260       163.55267       143.69087       154.66187       151.84776       129.65436       111.76710       95.561150       63.604446       21.286022       10.234188       52.596260       106.90328       143.56778       170.36993       179.30333       190.70949       222.66158       244.91658       232.85527       162.25185       59.911934       8.3840303      6.48070476E-04  2.68478002E-02  0.30124658      0.91944754      0.69715703      0.15829100      3.70622352E-02  4.21269536E-02  1.27403075E-02  2.15387307E-02  1.14640994E-02   0.0000000       0.0000000      2.37057291E-04  1.51655907E-02  1.82794910E-02  5.67776244E-03  1.79535302E-04  1.45315658E-02  1.85298137E-02   1.0384804       18.432104       65.653618       111.48794       99.267448       40.448792       4.9275184      1.57423988E-02  1.22189745E-02   0.0000000       0.0000000       0.0000000       0.0000000       0.0000000       0.0000000       0.0000000       0.0000000       0.0000000      3.85783566E-03
   436.95428       720.66003       1088.6421       1496.5148       1869.2552       2027.5754       1878.5084       1629.1263       1618.1749       1758.4075       1867.3892       2106.6421       2298.7351       2216.9128       2092.2688       1854.2523       1342.1884       852.37915       617.80841       544.01080       547.54303       622.68793       677.23883       640.37891       546.87518       470.99030       443.32584       429.85605       395.17444       339.86871       301.47464       305.49408       365.90918       471.50790       482.18460       349.94870       235.62607       180.79543       129.38092       92.594765       85.006714       81.985405       57.362236       37.220089       39.369915       51.309319       65.336952       67.933708       44.910770       14.210789       1.5941491      0.35359955      2.05188394E-02  0.48451471       2.9625118       5.6437817       3.3417006      0.36105812      1.70526598E-02  5.65931492E-04  6.31478205E-02  0.43298218      0.95966738      0.80261153      0.21531992      0.12335034       1.9381219       9.1957359       15.603395       12.394802       4.7322636      0.72794157      7.61926696E-02  3.84249613E-02  4.44985507E-03  7.90990089E-06  3.45390406E-04  1.57312513E-03  3.45545181E-04  1.35672828E-02  0.22872207       2.1657979       11.948011       36.507534       69.037315       96.215408       109.69080       109.25267       113.13100       128.04140       134.73253       133.67128       140.74751       142.80383       128.50105       115.98702       113.23981       113.49146       119.04449       138.64452       166.07144       183.09113       187.61134       189.17424       199.44409       212.66859       202.24590       166.06105       136.34901       133.36455       135.57121       119.76853       97.722710       85.687126       65.787010       27.184444       7.0182214       33.359268       86.017059       131.33891       161.80450       172.62810       179.17780       205.67638       241.18034       257.79770       203.46892       87.027733       14.414007       0.0000000      8.75892397E-03  0.43222374       5.8722014       10.924942       6.1295781       1.0556986      2.26430036E-02  4.32386622E-02  3.61829586E-02  1.58335473E-02  0.27127987      0.99773175      0.82950944      0.21515903      1.76978447E-02  5.78365056E-03  1.64149751E-04  1.32862609E-02  1.00813080E-02  0.25935280       12.081872       43.069153       75.295929       75.060211       38.714386       7.8421731      4.17264253E-02  4.45892755E-03   0.0000000       0.0000000       0.0000000       0.0000000       0.0000000       0.0000000       0.0000000      2.00133980E-03  1.91032700E-03  3.51567473E-03
   301.35812       622.87543       1040.6013       1504.9772       1831.9718       1719.8824       1242.6753       817.48523       718.24457       855.51843       1116.9016       1500.0620       1757.8411       1798.2646       1927.1581       2036.9785       1776.5770       1305.0488       928.41272       670.44666       524.52368       539.70551       612.16193       622.67212       583.91132       537.89960       501.63065       468.90152       424.72971       366.57242       333.07025       350.38843       407.29855       488.00577       493.94565       381.00800       263.30719       180.75740       121.21360       99.318520       95.908150       87.104424       62.903374       42.888451       44.887245       54.219841       56.842205       51.608509       35.504715       16.109533       7.4517155       5.2421131       2.0306559      0.19240814      0.41126281      0.71493912      0.35840064      3.66605930E-02  1.50042744E-02  4.56976099E-03  8.49429145E-03  4.15852889E-02  0.15053269      1.44235687E-02   0.0000000      0.23557222       2.6137993       9.7515192       14.518342       10.428050       3.7999008      0.63502848      3.86257656E-02  4.76841535E-03  1.60673738E-03  1.06097711E-03  3.25852912E-03  1.22530921E-03  1.14633753E-04  2.26281001E-03  0.18649133       2.5387414       13.890012       38.641960       72.445869       104.76398       121.14242       116.93089       114.17150       121.72334       123.38738       121.09147       125.48086       129.04446       125.76772       118.96461       110.72355       105.22501       111.27097       136.56020       157.84534       163.13321       178.93498       198.89413       212.67809       216.31683       198.26611       166.98668       134.79478       117.93182       116.30564       107.28715       85.591492       65.567993       45.414570       18.873383       3.7318103       14.421588       56.908535       113.87219       158.62711       178.37332       188.58052       206.25827       232.30894       252.35237       210.91646       100.66196       18.783451       0.0000000       0.0000000      0.42376608       13.292722       35.666588       29.389696       8.1156464      0.31812227      2.95766331E-02  3.99770923E-02   1.2467872       8.7801485       16.084425       11.689416       2.9792678      7.28812674E-03  5.54689439E-04  6.29607985E-06  1.01321342E-03  4.42495905E-02  5.74178807E-02   3.0550656       12.404417       27.009457       36.273018       28.999132       11.183356       1.2223178      5.94850426E-05  3.43268253E-02  2.77769733E-02   0.0000000       0.0000000       0.0000000       0.0000000      1.70865300E-04  2.03305320E-03  1.78856484E-03   0.0000000    
   111.64857       304.24289       672.24469       1220.2213       1546.4436       1231.1235       639.49316       312.90274       245.38144       282.20428       445.78992       696.19672       876.96661       1055.6171       1434.7813       1856.7153       1927.5203       1627.3840       1228.2393       862.20636       622.58539       578.41931       609.56512       590.97369       545.14697       514.89191       494.79968       474.07822       436.26706       387.68430       378.53754       415.67609       471.35043       528.95093       525.00104       428.93372       306.69455       211.03719       152.02702       120.53432       99.261589       84.697174       66.956055       48.338036       49.322681       54.551586       47.892265       42.055908       34.740372       27.869547       28.628693       25.323471       13.385304       2.7185042      0.13947980      7.65043078E-05  2.35367892E-03  1.85707510E-02  3.86836864E-02  1.05657540E-02  8.51215329E-03  7.22310448E-04   0.0000000       0.0000000      7.84347299E-03  0.18876958       1.2694290       3.5568466       4.5706120       2.8501296      0.91322339      0.16562529      2.11755410E-02  6.79325545E-03  4.10820078E-03  1.34726346E-03  2.97482801E-03  4.09551663E-04   0.0000000       0.0000000      7.99639970E-02   1.9629533       13.499976       37.936111       68.927948       100.13634       118.75524       119.84787       120.70718       120.02280       111.91737       110.50600       117.45482       124.07367       126.30992       120.15807       108.56023       102.01756       110.01904       134.96368       146.88768       140.29778       160.25552       196.11414       215.66351       216.04266       195.15578       164.23495       136.41801       119.58603       110.95855       96.878769       69.914055       38.862053       17.109282       5.5094085      0.92756927       3.0687306       25.182116       83.578468       149.32324       187.36339       206.84378       218.87537       225.15782       227.61505       186.96822       90.302254       17.115953       0.0000000       0.0000000      0.49430904       16.064135       59.465435       68.749077       31.801975       5.1694551       0.0000000      0.10135884       4.9635553       27.054186       44.229321       30.730391       7.9837565      0.15287691       0.0000000      6.03619583E-06  9.75524599E-04  4.30970900E-02  5.75423911E-02  2.01790873E-02  5.28969616E-02   2.6440918       8.7988262       13.402602       8.5661745       1.9991239      0.34058055      0.17098416      2.66916081E-02  5.06432334E-05   0.0000000       0.0000000       0.0000000      7.40094169E-04  6.89897453E-04  3.49001773E-02  0.61961472    
   12.480091       60.044090       277.26047       785.59094       1184.5402       979.58466       504.81500       261.91855       189.03189       144.31567       152.61958       229.87207       366.53479       616.87640       1084.3184       1654.2960       1912.3921       1750.9375       1480.3730       1224.7137       982.36829       812.24774       713.09247       628.87701       544.45392       488.18054       463.85730       461.55734       453.78445       435.74646       436.55804       459.80389       510.65387       565.33057       574.17548       524.68121       416.81226       296.91547       210.54137       145.59703       102.65318       86.895622       72.001305       54.417229       51.893852       48.191006       41.688374       47.517078       48.269829       49.202503       62.336216       64.035065       44.841103       20.760241       8.3654871       3.6434126      0.82305461      5.51275015E-02  2.98291966E-02  1.67808235E-02  3.65860984E-02  3.24694975E-03   0.0000000      6.22871506E-04  1.00893909E-02  5.93428090E-02  0.13483019      7.75677264E-02  7.22855655E-03  2.44140998E-03  1.06415516E-02  3.49210459E-03  1.11152241E-02  6.60898117E-03  4.64634076E-02  0.28353244      0.49271327      0.81294256       1.1960822      0.57522881      6.42866418E-02  0.77154005       7.6880460       26.427925       51.792583       78.787262       97.967186       106.54201       114.81904       115.19180       107.77718       108.22194       112.56812       116.34802       118.15497       110.95367       102.82417       104.37696       111.65958       124.75945       131.65308       129.59068       150.01147       185.06429       208.48128       215.33220       196.98230       166.61841       144.28423       129.63773       112.70229       84.920181       48.371048       16.773726       2.7105036      0.12003046      6.39913604E-03  0.24104631       6.3054862       48.186375       119.55627       175.74596       208.79617       226.70119       225.14050       203.62083       144.59465       57.938080       9.1306543       0.0000000      4.39684372E-04  0.44756567       14.590869       66.781242       101.42954       65.538399       15.446439      0.21302168      0.14424773       6.9490118       32.848019       50.220657       33.398041       8.4405165      0.16279997       0.0000000       0.0000000      4.05807123E-06  6.62062317E-04  2.94358302E-02  2.28526425E-02  2.30252673E-03  4.14997945E-03  0.61677533       2.3417001       6.4806037       10.620153       7.2978935       1.6196578      1.85870230E-02  1.53840873E-02   0.0000000       0.0000000       0.0000000      5.65749768E-04  5.27377590E-04  0.32225198       2.4468594    
